<?xml version="1.0" encoding="UTF-8"?>

<!-- generated on 2024-09-05 09:58:45 by Eclipse SUMO netconvert Version 1.20.0
<configuration xmlns:xsi="http://www.w3.org/2001/XMLSchema-instance" xsi:noNamespaceSchemaLocation="http://sumo.dlr.de/xsd/netconvertConfiguration.xsd">

    <input>
        <type-files value="${SUMO_HOME}/data/typemap/osmNetconvert.typ.xml"/>
        <osm-files value="osm_bbox.osm.xml.gz"/>
    </input>

    <output>
        <output-file value="osm.net.xml.gz"/>
        <output.street-names value="true"/>
        <output.original-names value="true"/>
    </output>

    <projection>
        <proj.utm value="true"/>
    </projection>

    <processing>
        <geometry.remove value="true"/>
        <roundabouts.guess value="true"/>
    </processing>

    <tls_building>
        <tls.discard-simple value="true"/>
        <tls.join value="true"/>
        <tls.guess-signals value="true"/>
        <tls.default-type value="actuated"/>
    </tls_building>

    <ramp_guessing>
        <ramps.guess value="true"/>
    </ramp_guessing>

    <junctions>
        <junctions.join value="true"/>
        <junctions.corner-detail value="5"/>
    </junctions>

</configuration>
-->

<net version="1.20" junctionCornerDetail="5" limitTurnSpeed="5.50" xmlns:xsi="http://www.w3.org/2001/XMLSchema-instance" xsi:noNamespaceSchemaLocation="http://sumo.dlr.de/xsd/net_file.xsd">

    <location netOffset="-690747.88,-5335847.20" convBoundary="0.00,0.00,416.07,395.14" origBoundary="11.564617,48.147231,11.570152,48.150708" projParameter="+proj=utm +zone=32 +ellps=WGS84 +datum=WGS84 +units=m +no_defs"/>

    <type id="highway.footway" priority="1" numLanes="1" speed="2.78" allow="pedestrian" oneway="1" width="2.00"/>
    <type id="highway.path" priority="1" numLanes="1" speed="5.56" allow="pedestrian bicycle" oneway="0" width="2.00"/>
    <type id="highway.residential" priority="3" numLanes="1" speed="13.89" disallow="tram rail_urban rail rail_electric rail_fast ship container cable_car subway aircraft wheelchair scooter drone" oneway="0"/>
    <type id="highway.secondary" priority="11" numLanes="1" speed="27.78" disallow="tram rail_urban rail rail_electric rail_fast ship container cable_car subway aircraft wheelchair scooter drone" oneway="0"/>
    <type id="highway.service" priority="1" numLanes="1" speed="5.56" allow="pedestrian delivery bicycle" oneway="0"/>
    <type id="highway.steps" priority="1" numLanes="1" speed="1.39" allow="pedestrian" oneway="1" width="2.00"/>

    <edge id=":10142544413_0" function="internal">
        <lane id=":10142544413_0_0" index="0" allow="pedestrian delivery bicycle" speed="3.65" length="4.67" shape="63.99,199.90 62.58,199.62 61.90,199.04 61.97,198.14 62.77,196.95"/>
    </edge>
    <edge id=":10199385975_0" function="internal">
        <lane id=":10199385975_0_0" index="0" allow="pedestrian delivery bicycle" speed="3.65" length="4.67" shape="105.15,289.54 104.84,290.95 104.24,291.62 103.35,291.53 102.17,290.71"/>
    </edge>
    <edge id=":10199385976_0" function="internal">
        <lane id=":10199385976_0_0" index="0" allow="pedestrian delivery bicycle" speed="5.06" length="5.05" shape="95.75,274.24 95.06,273.01 94.16,272.30 93.05,272.09 91.72,272.40"/>
    </edge>
    <edge id=":10199385976_1" function="internal">
        <lane id=":10199385976_1_0" index="0" allow="pedestrian delivery bicycle" speed="5.56" length="10.22" shape="95.75,274.24 95.11,271.51 95.50,269.24 96.93,267.43 99.39,266.08"/>
    </edge>
    <edge id=":10199385976_2" function="internal">
        <lane id=":10199385976_2_0" index="0" allow="pedestrian delivery bicycle" speed="3.65" length="4.67" shape="95.75,274.24 96.06,272.83 96.66,272.17 97.55,272.25 98.73,273.08"/>
    </edge>
    <edge id=":10199385976_3" function="internal">
        <lane id=":10199385976_3_0" index="0" allow="pedestrian delivery bicycle" speed="5.03" length="5.01" shape="100.52,269.07 99.31,269.74 98.61,270.62 98.42,271.74 98.73,273.08"/>
    </edge>
    <edge id=":10199385976_4" function="internal">
        <lane id=":10199385976_4_0" index="0" allow="pedestrian delivery bicycle" speed="5.56" length="9.40" shape="100.52,269.07 91.72,272.40"/>
    </edge>
    <edge id=":10199385976_5" function="internal">
        <lane id=":10199385976_5_0" index="0" allow="pedestrian delivery bicycle" speed="3.65" length="4.67" shape="100.52,269.07 99.11,268.75 98.45,268.14 98.55,267.25 99.39,266.08"/>
    </edge>
    <edge id=":10199385976_6" function="internal">
        <lane id=":10199385976_6_0" index="0" allow="pedestrian delivery bicycle" speed="5.56" length="9.40" shape="90.59,269.40 99.39,266.08"/>
    </edge>
    <edge id=":10199385976_7" function="internal">
        <lane id=":10199385976_7_0" index="0" allow="pedestrian delivery bicycle" speed="5.56" length="10.19" shape="90.59,269.40 93.28,268.78 95.54,269.19 97.35,270.62 98.73,273.08"/>
    </edge>
    <edge id=":10199385976_8" function="internal">
        <lane id=":10199385976_8_0" index="0" allow="pedestrian delivery bicycle" speed="3.65" length="4.67" shape="90.59,269.40 91.99,269.73 92.65,270.33 92.56,271.22 91.72,272.40"/>
    </edge>
    <edge id=":10199385977_0" function="internal">
        <lane id=":10199385977_0_0" index="0" allow="pedestrian delivery bicycle" speed="3.65" length="4.67" shape="76.29,278.41 74.88,278.10 74.22,277.50 74.30,276.61 75.13,275.43"/>
    </edge>
    <edge id=":10855746723_0" function="internal">
        <lane id=":10855746723_0_0" index="0" allow="pedestrian delivery bicycle" speed="3.65" length="4.67" shape="209.67,124.06 211.08,124.37 211.74,124.97 211.66,125.86 210.83,127.04"/>
    </edge>
    <edge id=":11401594541_0" function="internal">
        <lane id=":11401594541_0_0" index="0" allow="pedestrian delivery bicycle" speed="3.65" length="4.67" shape="10.06,95.19 8.65,94.88 7.98,94.29 8.06,93.40 8.88,92.21"/>
    </edge>
    <edge id=":12067724218_0" function="internal">
        <lane id=":12067724218_0_0" index="0" allow="pedestrian delivery bicycle" speed="5.56" length="5.00" shape="203.61,155.39 201.78,150.73"/>
    </edge>
    <edge id=":12067724218_1" function="internal">
        <lane id=":12067724218_1_0" index="0" allow="pedestrian delivery bicycle" speed="3.65" length="1.44" shape="203.61,155.39 203.91,153.98"/>
    </edge>
    <edge id=":12067724218_4" function="internal">
        <lane id=":12067724218_4_0" index="0" allow="pedestrian delivery bicycle" speed="3.65" length="3.23" shape="203.91,153.98 204.51,153.31 205.40,153.39 206.59,154.22"/>
    </edge>
    <edge id=":12067724218_2" function="internal">
        <lane id=":12067724218_2_0" index="0" allow="pedestrian delivery bicycle" speed="5.56" length="5.00" shape="204.76,149.56 206.59,154.22"/>
    </edge>
    <edge id=":12067724218_3" function="internal">
        <lane id=":12067724218_3_0" index="0" allow="pedestrian delivery bicycle" speed="3.65" length="1.44" shape="204.76,149.56 204.46,150.97"/>
    </edge>
    <edge id=":12067724218_5" function="internal">
        <lane id=":12067724218_5_0" index="0" allow="pedestrian delivery bicycle" speed="3.65" length="3.23" shape="204.46,150.97 203.86,151.64 202.97,151.56 201.78,150.73"/>
    </edge>
    <edge id=":130358856_0" function="internal">
        <lane id=":130358856_0_0" index="0" allow="pedestrian delivery bicycle" speed="5.56" length="7.16" shape="340.95,190.91 334.24,193.40"/>
    </edge>
    <edge id=":130358856_1" function="internal">
        <lane id=":130358856_1_0" index="0" allow="pedestrian delivery bicycle" speed="3.65" length="1.44" shape="340.95,190.91 339.54,190.61"/>
    </edge>
    <edge id=":130358856_4" function="internal">
        <lane id=":130358856_4_0" index="0" allow="pedestrian delivery bicycle" speed="3.65" length="3.23" shape="339.54,190.61 338.88,190.01 338.96,189.12 339.78,187.94"/>
    </edge>
    <edge id=":130358856_2" function="internal">
        <lane id=":130358856_2_0" index="0" allow="pedestrian delivery bicycle" speed="5.56" length="7.06" shape="333.16,190.39 339.78,187.94"/>
    </edge>
    <edge id=":130358856_3" function="internal">
        <lane id=":130358856_3_0" index="0" allow="pedestrian delivery bicycle" speed="3.65" length="1.44" shape="333.16,190.39 334.56,190.74"/>
    </edge>
    <edge id=":130358856_5" function="internal">
        <lane id=":130358856_5_0" index="0" allow="pedestrian delivery bicycle" speed="3.65" length="3.23" shape="334.56,190.74 335.21,191.36 335.10,192.24 334.24,193.40"/>
    </edge>
    <edge id=":1326631454_0" function="internal">
        <lane id=":1326631454_0_0" index="0" allow="pedestrian delivery bicycle" speed="4.90" length="4.75" shape="356.72,187.69 356.12,186.62 355.27,186.02 354.18,185.89 352.84,186.23"/>
    </edge>
    <edge id=":1326631454_1" function="internal">
        <lane id=":1326631454_1_0" index="0" allow="pedestrian delivery bicycle" speed="5.56" length="9.88" shape="356.72,187.69 356.18,185.09 356.61,182.91 358.03,181.15 360.41,179.81"/>
    </edge>
    <edge id=":1326631454_2" function="internal">
        <lane id=":1326631454_2_0" index="0" allow="pedestrian delivery bicycle" speed="3.65" length="4.67" shape="356.72,187.69 357.06,186.29 357.67,185.64 358.56,185.74 359.72,186.59"/>
    </edge>
    <edge id=":1326631454_3" function="internal">
        <lane id=":1326631454_3_0" index="0" allow="pedestrian delivery bicycle" speed="5.00" length="4.81" shape="361.59,182.78 360.40,183.44 359.70,184.30 359.47,185.35 359.72,186.59"/>
    </edge>
    <edge id=":1326631454_4" function="internal">
        <lane id=":1326631454_4_0" index="0" allow="pedestrian delivery bicycle" speed="5.56" length="9.40" shape="361.59,182.78 352.84,186.23"/>
    </edge>
    <edge id=":1326631454_5" function="internal">
        <lane id=":1326631454_5_0" index="0" allow="pedestrian delivery bicycle" speed="3.65" length="4.67" shape="361.59,182.78 360.18,182.48 359.51,181.88 359.59,180.99 360.41,179.81"/>
    </edge>
    <edge id=":1326631454_6" function="internal">
        <lane id=":1326631454_6_0" index="0" allow="pedestrian delivery bicycle" speed="5.56" length="9.40" shape="351.67,183.25 360.41,179.81"/>
    </edge>
    <edge id=":1326631454_7" function="internal">
        <lane id=":1326631454_7_0" index="0" allow="pedestrian delivery bicycle" speed="5.56" length="10.00" shape="351.67,183.25 354.41,182.58 356.67,182.91 358.44,184.25 359.72,186.59"/>
    </edge>
    <edge id=":1326631454_8" function="internal">
        <lane id=":1326631454_8_0" index="0" allow="pedestrian delivery bicycle" speed="3.65" length="4.67" shape="351.67,183.25 353.08,183.56 353.74,184.15 353.66,185.05 352.84,186.23"/>
    </edge>
    <edge id=":1326631482_0" function="internal">
        <lane id=":1326631482_0_0" index="0" disallow="tram rail_urban rail rail_electric rail_fast ship container cable_car subway aircraft wheelchair scooter drone" speed="13.89" length="9.42" shape="318.87,202.52 315.42,193.76"/>
    </edge>
    <edge id=":1326631482_1" function="internal">
        <lane id=":1326631482_1_0" index="0" allow="pedestrian delivery bicycle" speed="6.92" length="3.23" shape="318.87,202.52 318.24,199.85 318.32,199.37"/>
    </edge>
    <edge id=":1326631482_7" function="internal">
        <lane id=":1326631482_7_0" index="0" allow="pedestrian delivery bicycle" speed="6.92" length="6.94" shape="318.32,199.37 318.62,197.59 320.03,195.74 322.44,194.30"/>
    </edge>
    <edge id=":1326631482_2" function="internal">
        <lane id=":1326631482_2_0" index="0" allow="pedestrian delivery bicycle" speed="5.11" length="5.10" shape="323.68,197.25 322.46,197.97 321.74,198.90 321.54,200.02 321.85,201.35"/>
    </edge>
    <edge id=":1326631482_3" function="internal">
        <lane id=":1326631482_3_0" index="0" allow="pedestrian delivery bicycle" speed="6.84" length="10.29" shape="323.68,197.25 320.95,197.96 318.66,197.62 316.82,196.22 315.42,193.76"/>
    </edge>
    <edge id=":1326631482_4" function="internal">
        <lane id=":1326631482_4_0" index="0" allow="pedestrian delivery bicycle" speed="3.65" length="4.67" shape="323.68,197.25 322.27,196.98 321.59,196.39 321.65,195.50 322.44,194.30"/>
    </edge>
    <edge id=":1326631482_5" function="internal">
        <lane id=":1326631482_5_0" index="0" allow="pedestrian delivery bicycle" speed="5.01" length="5.03" shape="318.41,192.59 319.09,193.79 319.99,194.48 321.11,194.65 322.44,194.30"/>
    </edge>
    <edge id=":1326631482_6" function="internal">
        <lane id=":1326631482_6_0" index="0" disallow="tram rail_urban rail rail_electric rail_fast ship container cable_car subway aircraft wheelchair scooter drone" speed="13.89" length="9.41" shape="318.41,192.59 321.85,201.35"/>
    </edge>
    <edge id=":1326631557_0" function="internal">
        <lane id=":1326631557_0_0" index="0" allow="pedestrian delivery bicycle" speed="3.65" length="4.67" shape="359.79,186.78 359.45,188.18 358.84,188.83 357.95,188.73 356.79,187.88"/>
    </edge>
    <edge id=":1344355525_0" function="internal">
        <lane id=":1344355525_0_0" index="0" allow="pedestrian delivery bicycle" speed="3.65" length="4.67" shape="411.91,154.30 412.21,152.88 412.80,152.22 413.69,152.29 414.88,153.11"/>
    </edge>
    <edge id=":1660679578_0" function="internal">
        <lane id=":1660679578_0_0" index="0" allow="pedestrian delivery bicycle" speed="6.95" length="11.28" shape="168.49,373.12 168.94,375.73 168.23,378.04 166.37,380.05 163.34,381.76"/>
    </edge>
    <edge id=":1660679578_1" function="internal">
        <lane id=":1660679578_1_0" index="0" disallow="tram rail_urban rail rail_electric rail_fast ship container cable_car subway aircraft wheelchair scooter drone" speed="4.76" length="7.96" width="5.45" shape="168.49,373.12 167.93,375.51 166.89,376.63 165.38,376.47 163.38,375.03"/>
    </edge>
    <edge id=":1660679578_2" function="internal">
        <lane id=":1660679578_2_0" index="0" allow="pedestrian delivery bicycle" speed="4.92" length="4.52" shape="162.07,378.83 163.04,378.21 163.58,377.37 163.69,376.31 163.38,375.03"/>
    </edge>
    <edge id=":1680609182_0" function="internal">
        <lane id=":1680609182_0_0" index="0" disallow="pedestrian tram rail_urban rail rail_electric rail_fast ship container cable_car subway aircraft wheelchair scooter drone" speed="13.89" length="0.30" shape="136.56,303.26 136.45,302.97"/>
    </edge>
    <edge id=":1680609182_1" function="internal">
        <lane id=":1680609182_1_0" index="0" disallow="pedestrian tram rail_urban rail rail_electric rail_fast ship container cable_car subway aircraft wheelchair scooter drone" speed="13.89" length="0.29" shape="139.43,301.81 139.54,302.08"/>
    </edge>
    <edge id=":2064183917_0" function="internal">
        <lane id=":2064183917_0_0" index="0" allow="delivery bicycle" speed="3.62" length="2.09" shape="249.35,24.36 249.12,23.77 248.87,23.32 248.53,23.08 248.01,23.15"/>
    </edge>
    <edge id=":2064183917_1" function="internal">
        <lane id=":2064183917_1_0" index="0" disallow="pedestrian tram rail_urban rail rail_electric rail_fast ship container cable_car subway aircraft wheelchair scooter drone" speed="3.65" length="4.67" shape="249.35,24.36 249.66,22.96 250.26,22.30 251.15,22.38 252.33,23.21"/>
    </edge>
    <edge id=":2064183917_2" function="internal">
        <lane id=":2064183917_2_0" index="0" allow="delivery bicycle" speed="5.85" length="7.19" shape="246.81,20.19 248.57,19.80 250.07,20.18 251.33,21.32 252.33,23.21"/>
    </edge>
    <edge id=":2064183917_3" function="internal">
        <lane id=":2064183917_3_0" index="0" allow="pedestrian delivery bicycle" speed="3.65" length="4.67" shape="246.81,20.19 248.22,20.48 248.89,21.07 248.82,21.96 248.01,23.15"/>
    </edge>
    <edge id=":2064183918_0" function="internal">
        <lane id=":2064183918_0_0" index="0" allow="pedestrian bicycle" speed="4.59" length="4.58" width="2.00" shape="245.48,27.58 244.90,26.32 244.14,25.56 243.20,25.30 242.08,25.53"/>
    </edge>
    <edge id=":2064183918_1" function="internal">
        <lane id=":2064183918_1_0" index="0" allow="pedestrian bicycle" speed="5.56" length="8.13" width="2.00" shape="245.48,27.58 244.82,24.85 244.79,22.72 245.39,21.19 246.62,20.26"/>
    </edge>
    <edge id=":2064183918_2" function="internal">
        <lane id=":2064183918_2_0" index="0" allow="pedestrian bicycle" speed="2.89" length="2.92" width="2.00" shape="245.48,27.58 245.72,26.72 246.12,26.32 246.68,26.41 247.38,26.97"/>
    </edge>
    <edge id=":2064183918_3" function="internal">
        <lane id=":2064183918_3_0" index="0" allow="pedestrian bicycle" speed="4.76" length="4.11" width="2.00" shape="247.82,23.23 247.25,23.68 246.98,24.46 247.03,25.55 247.38,26.97"/>
    </edge>
    <edge id=":2064183918_4" function="internal">
        <lane id=":2064183918_4_0" index="0" allow="pedestrian delivery bicycle" speed="5.56" length="6.19" shape="247.82,23.23 242.08,25.53"/>
    </edge>
    <edge id=":2064183918_5" function="internal">
        <lane id=":2064183918_5_0" index="0" allow="pedestrian delivery bicycle" speed="3.65" length="4.67" shape="247.82,23.23 246.41,22.94 245.74,22.34 245.81,21.45 246.62,20.26"/>
    </edge>
    <edge id=":2064183918_6" function="internal">
        <lane id=":2064183918_6_0" index="0" allow="pedestrian delivery bicycle" speed="5.56" length="6.17" shape="240.89,22.56 246.62,20.26"/>
    </edge>
    <edge id=":2064183918_7" function="internal">
        <lane id=":2064183918_7_0" index="0" allow="pedestrian bicycle" speed="5.56" length="9.02" width="2.00" shape="240.89,22.56 242.98,22.16 244.76,22.77 246.23,24.37 247.38,26.97"/>
    </edge>
    <edge id=":2064183918_8" function="internal">
        <lane id=":2064183918_8_0" index="0" allow="pedestrian delivery bicycle" speed="3.65" length="4.67" shape="240.89,22.56 242.30,22.86 242.97,23.45 242.90,24.34 242.08,25.53"/>
    </edge>
    <edge id=":21457467_0" function="internal">
        <lane id=":21457467_0_0" index="0" disallow="tram rail_urban rail rail_electric rail_fast ship container cable_car subway aircraft wheelchair scooter drone" speed="3.65" length="1.44" shape="5.23,272.28 5.53,270.87"/>
    </edge>
    <edge id=":21457467_2" function="internal">
        <lane id=":21457467_2_0" index="0" disallow="tram rail_urban rail rail_electric rail_fast ship container cable_car subway aircraft wheelchair scooter drone" speed="3.65" length="3.23" shape="5.53,270.87 6.13,270.21 7.02,270.28 8.21,271.10"/>
    </edge>
    <edge id=":21457467_1" function="internal">
        <lane id=":21457467_1_0" index="0" disallow="tram rail_urban rail rail_electric rail_fast ship container cable_car subway aircraft wheelchair scooter drone" speed="6.66" length="8.29" shape="11.74,264.74 9.55,265.90 8.23,267.35 7.78,269.08 8.21,271.10"/>
    </edge>
    <edge id=":2830356233_0" function="internal">
        <lane id=":2830356233_0_0" index="0" disallow="tram rail_urban rail rail_electric rail_fast ship container cable_car subway aircraft wheelchair scooter drone" speed="13.89" length="5.09" shape="51.45,88.10 49.61,83.35"/>
    </edge>
    <edge id=":2830356233_1" function="internal">
        <lane id=":2830356233_1_0" index="0" disallow="tram rail_urban rail rail_electric rail_fast ship container cable_car subway aircraft wheelchair scooter drone" speed="13.89" length="5.03" shape="52.60,82.23 54.42,86.92"/>
    </edge>
    <edge id=":2836367309_0" function="internal">
        <lane id=":2836367309_0_0" index="0" allow="pedestrian delivery bicycle" speed="3.65" length="4.67" shape="93.89,347.80 94.20,346.39 94.79,345.73 95.69,345.80 96.87,346.63"/>
    </edge>
    <edge id=":2836367310_0" function="internal">
        <lane id=":2836367310_0_0" index="0" allow="delivery bicycle" speed="7.00" length="8.91" shape="111.17,375.50 108.48,376.21 106.33,376.09 104.70,375.13 103.61,373.35"/>
    </edge>
    <edge id=":2836367310_1" function="internal">
        <lane id=":2836367310_1_0" index="0" allow="pedestrian delivery bicycle" speed="3.65" length="4.67" shape="106.61,372.23 106.28,373.63 105.67,374.29 104.78,374.19 103.61,373.35"/>
    </edge>
    <edge id=":2838593983_0" function="internal">
        <lane id=":2838593983_0_0" index="0" allow="pedestrian delivery bicycle" speed="3.65" length="4.67" shape="123.52,342.71 123.84,341.30 124.44,340.64 125.33,340.73 126.51,341.57"/>
    </edge>
    <edge id=":2898180074_0" function="internal">
        <lane id=":2898180074_0_0" index="0" disallow="tram rail_urban rail rail_electric rail_fast ship container cable_car subway aircraft wheelchair scooter drone" speed="13.89" length="4.97" shape="230.09,58.03 234.75,56.27"/>
        <lane id=":2898180074_0_1" index="1" disallow="tram rail_urban rail rail_electric rail_fast ship container cable_car subway aircraft wheelchair scooter drone" speed="13.89" length="4.97" shape="231.24,61.02 235.87,59.27"/>
    </edge>
    <edge id=":2898180075_0" function="internal">
        <lane id=":2898180075_0_0" index="0" allow="pedestrian delivery bicycle" speed="5.56" length="4.99" shape="225.66,32.09 221.02,33.93"/>
    </edge>
    <edge id=":2898180075_1" function="internal">
        <lane id=":2898180075_1_0" index="0" allow="pedestrian delivery bicycle" speed="3.65" length="1.44" shape="225.66,32.09 224.25,31.79"/>
    </edge>
    <edge id=":2898180075_4" function="internal">
        <lane id=":2898180075_4_0" index="0" allow="pedestrian delivery bicycle" speed="3.65" length="3.23" shape="224.25,31.79 223.58,31.20 223.66,30.31 224.48,29.12"/>
    </edge>
    <edge id=":2898180075_2" function="internal">
        <lane id=":2898180075_2_0" index="0" allow="pedestrian delivery bicycle" speed="5.56" length="4.98" shape="219.84,30.96 224.48,29.12"/>
    </edge>
    <edge id=":2898180075_3" function="internal">
        <lane id=":2898180075_3_0" index="0" allow="pedestrian delivery bicycle" speed="3.65" length="1.44" shape="219.84,30.96 221.25,31.26"/>
    </edge>
    <edge id=":2898180075_5" function="internal">
        <lane id=":2898180075_5_0" index="0" allow="pedestrian delivery bicycle" speed="3.65" length="3.23" shape="221.25,31.26 221.92,31.86 221.84,32.75 221.02,33.93"/>
    </edge>
    <edge id=":2898180076_0" function="internal">
        <lane id=":2898180076_0_0" index="0" allow="pedestrian delivery bicycle" speed="5.56" length="5.00" shape="212.89,179.10 211.07,174.44"/>
    </edge>
    <edge id=":2898180076_1" function="internal">
        <lane id=":2898180076_1_0" index="0" allow="pedestrian delivery bicycle" speed="3.65" length="4.67" shape="212.89,179.10 213.20,177.69 213.80,177.02 214.69,177.11 215.87,177.93"/>
    </edge>
    <edge id=":2898180076_2" function="internal">
        <lane id=":2898180076_2_0" index="0" allow="pedestrian delivery bicycle" speed="5.56" length="5.00" shape="214.05,173.27 215.87,177.93"/>
    </edge>
    <edge id=":2898180076_3" function="internal">
        <lane id=":2898180076_3_0" index="0" allow="pedestrian delivery bicycle" speed="3.65" length="4.67" shape="214.05,173.27 213.74,174.68 213.14,175.35 212.25,175.27 211.07,174.44"/>
    </edge>
    <edge id=":2898180085_0" function="internal">
        <lane id=":2898180085_0_0" index="0" allow="pedestrian delivery bicycle" speed="5.56" length="9.42" shape="196.08,136.15 192.66,127.37"/>
    </edge>
    <edge id=":2898180085_1" function="internal">
        <lane id=":2898180085_1_0" index="0" allow="pedestrian delivery bicycle" speed="5.56" length="10.17" shape="196.08,136.15 195.44,133.45 195.83,131.18 197.23,129.36 199.66,127.98"/>
    </edge>
    <edge id=":2898180085_2" function="internal">
        <lane id=":2898180085_2_0" index="0" allow="pedestrian delivery bicycle" speed="3.65" length="4.67" shape="196.08,136.15 196.39,134.75 196.99,134.08 197.88,134.16 199.06,134.99"/>
    </edge>
    <edge id=":2898180085_3" function="internal">
        <lane id=":2898180085_3_0" index="0" allow="pedestrian delivery bicycle" speed="5.05" length="5.01" shape="200.83,130.96 199.63,131.64 198.94,132.54 198.75,133.65 199.06,134.99"/>
    </edge>
    <edge id=":2898180085_4" function="internal">
        <lane id=":2898180085_4_0" index="0" allow="pedestrian delivery bicycle" speed="5.56" length="10.19" shape="200.83,130.96 198.11,131.61 195.85,131.22 194.03,129.81 192.66,127.37"/>
    </edge>
    <edge id=":2898180085_5" function="internal">
        <lane id=":2898180085_5_0" index="0" allow="pedestrian delivery bicycle" speed="3.65" length="4.67" shape="200.83,130.96 199.42,130.66 198.76,130.06 198.84,129.17 199.66,127.98"/>
    </edge>
    <edge id=":2898180085_6" function="internal">
        <lane id=":2898180085_6_0" index="0" allow="pedestrian delivery bicycle" speed="5.03" length="5.01" shape="195.65,126.22 196.32,127.42 197.21,128.11 198.33,128.30 199.66,127.98"/>
    </edge>
    <edge id=":2898180085_7" function="internal">
        <lane id=":2898180085_7_0" index="0" allow="pedestrian delivery bicycle" speed="5.56" length="9.41" shape="195.65,126.22 199.06,134.99"/>
    </edge>
    <edge id=":2898180085_8" function="internal">
        <lane id=":2898180085_8_0" index="0" allow="pedestrian delivery bicycle" speed="3.65" length="4.67" shape="195.65,126.22 195.34,127.63 194.73,128.29 193.84,128.20 192.66,127.37"/>
    </edge>
    <edge id=":2898180088_0" function="internal">
        <lane id=":2898180088_0_0" index="0" allow="pedestrian delivery bicycle" speed="5.09" length="5.06" shape="188.54,116.69 187.87,115.50 186.96,114.81 185.82,114.62 184.45,114.92"/>
    </edge>
    <edge id=":2898180088_1" function="internal">
        <lane id=":2898180088_1_0" index="0" allow="pedestrian delivery bicycle" speed="5.56" length="9.41" shape="188.54,116.69 185.12,107.92"/>
    </edge>
    <edge id=":2898180088_2" function="internal">
        <lane id=":2898180088_2_0" index="0" allow="pedestrian delivery bicycle" speed="3.65" length="4.67" shape="188.54,116.69 188.85,115.28 189.45,114.62 190.35,114.71 191.52,115.54"/>
    </edge>
    <edge id=":2898180088_3" function="internal">
        <lane id=":2898180088_3_0" index="0" allow="pedestrian delivery bicycle" speed="5.56" length="9.43" shape="188.10,106.75 191.52,115.54"/>
    </edge>
    <edge id=":2898180088_4" function="internal">
        <lane id=":2898180088_4_0" index="0" allow="pedestrian delivery bicycle" speed="5.56" length="10.25" shape="188.10,106.75 188.75,109.49 188.36,111.77 186.92,113.58 184.45,114.92"/>
    </edge>
    <edge id=":2898180088_5" function="internal">
        <lane id=":2898180088_5_0" index="0" allow="pedestrian delivery bicycle" speed="3.65" length="4.67" shape="188.10,106.75 187.80,108.16 187.20,108.83 186.31,108.75 185.12,107.92"/>
    </edge>
    <edge id=":2898180088_6" function="internal">
        <lane id=":2898180088_6_0" index="0" allow="pedestrian delivery bicycle" speed="5.02" length="5.02" shape="183.34,111.93 184.55,111.27 185.25,110.38 185.44,109.26 185.12,107.92"/>
    </edge>
    <edge id=":2898180088_7" function="internal">
        <lane id=":2898180088_7_0" index="0" allow="pedestrian delivery bicycle" speed="5.56" length="10.18" shape="183.34,111.93 186.07,111.32 188.35,111.72 190.17,113.13 191.52,115.54"/>
    </edge>
    <edge id=":2898180088_8" function="internal">
        <lane id=":2898180088_8_0" index="0" allow="pedestrian delivery bicycle" speed="3.65" length="4.67" shape="183.34,111.93 184.74,112.26 185.39,112.87 185.30,113.76 184.45,114.92"/>
    </edge>
    <edge id=":2898180090_0" function="internal">
        <lane id=":2898180090_0_0" index="0" allow="pedestrian delivery bicycle" speed="3.65" length="4.67" shape="156.36,247.61 156.05,249.02 155.46,249.68 154.57,249.61 153.38,248.79"/>
    </edge>
    <edge id=":2898180093_0" function="internal">
        <lane id=":2898180093_0_0" index="0" allow="pedestrian delivery bicycle" speed="5.07" length="5.04" shape="253.73,283.39 253.05,282.20 252.15,281.51 251.02,281.32 249.66,281.63"/>
    </edge>
    <edge id=":2898180093_1" function="internal">
        <lane id=":2898180093_1_0" index="0" allow="pedestrian delivery bicycle" speed="5.56" length="9.39" shape="253.73,283.39 250.32,274.63"/>
    </edge>
    <edge id=":2898180093_2" function="internal">
        <lane id=":2898180093_2_0" index="0" allow="pedestrian delivery bicycle" speed="3.65" length="4.67" shape="253.73,283.39 254.03,281.98 254.63,281.31 255.52,281.39 256.71,282.22"/>
    </edge>
    <edge id=":2898180093_3" function="internal">
        <lane id=":2898180093_3_0" index="0" allow="pedestrian delivery bicycle" speed="5.56" length="9.38" shape="253.30,273.48 256.71,282.22"/>
    </edge>
    <edge id=":2898180093_4" function="internal">
        <lane id=":2898180093_4_0" index="0" allow="pedestrian delivery bicycle" speed="5.56" length="10.20" shape="253.30,273.48 253.93,276.20 253.54,278.47 252.11,280.28 249.66,281.63"/>
    </edge>
    <edge id=":2898180093_5" function="internal">
        <lane id=":2898180093_5_0" index="0" allow="pedestrian delivery bicycle" speed="3.65" length="4.67" shape="253.30,273.48 252.99,274.89 252.39,275.55 251.50,275.46 250.32,274.63"/>
    </edge>
    <edge id=":2898180093_6" function="internal">
        <lane id=":2898180093_6_0" index="0" allow="pedestrian delivery bicycle" speed="5.03" length="5.01" shape="248.53,278.64 249.73,277.97 250.43,277.08 250.63,275.97 250.32,274.63"/>
    </edge>
    <edge id=":2898180093_7" function="internal">
        <lane id=":2898180093_7_0" index="0" allow="pedestrian delivery bicycle" speed="5.56" length="10.15" shape="248.53,278.64 251.25,278.02 253.52,278.42 255.34,279.82 256.71,282.22"/>
    </edge>
    <edge id=":2898180093_8" function="internal">
        <lane id=":2898180093_8_0" index="0" allow="pedestrian delivery bicycle" speed="3.65" length="4.67" shape="248.53,278.64 249.94,278.96 250.59,279.57 250.50,280.46 249.66,281.63"/>
    </edge>
    <edge id=":2898183205_0" function="internal">