<?xml version="1.0" encoding="UTF-8"?>

<!-- generated on 2024-09-05 10:04:58.297743 by randomTrips.py v1_20_0+0002-343658e7c64
<configuration>
    <net-file value="osm.net.xml.gz"/>
    <output-trip-file value="osm.passenger.trips.xml"/>
    <route-file value="osm.passenger.rou.xml"/>
    <prefix value="veh"/>
    <trip-attributes value="departLane=&quot;best&quot;"/>
    <fringe-start-attributes value="departSpeed=&quot;max&quot;"/>
    <vehicle-class value="passenger"/>
    <lanes value="True"/>
    <fringe-factor value="50"/>
    <allow-fringe.min-length value="1000.0"/>
    <via-edge-types value="highway.motorway,highway.motorway_link,highway.trunk_link,highway.primary_link,highway.secondary_link,highway.tertiary_link"/>
    <min-distance value="300.0"/>
    <min-distance.fringe value="10.0"/>
    <remove-loops value="True"/>
    <validate value="True"/>
    <insertion-density value="50.0"/>
</configuration>
-->

<!-- generated on 2024-09-05 10:04:58 by Eclipse SUMO duarouter Version 1.20.0
<configuration xmlns:xsi="http://www.w3.org/2001/XMLSchema-instance" xsi:noNamespaceSchemaLocation="http://sumo.dlr.de/xsd/duarouterConfiguration.xsd">

    <input>
        <net-file value="osm.net.xml.gz"/>
        <route-files value="osm.passenger.trips.xml"/>
    </input>

    <output>
        <output-file value="osm.passenger.trips.xml.tmp"/>
        <alternatives-output value="NUL"/>
        <write-trips value="true"/>
    </output>

    <processing>
        <remove-loops value="true"/>
    </processing>

    <time>
        <begin value="0.0"/>
        <end value="3600.0"/>
    </time>

    <report>
        <no-warnings value="true"/>
        <ignore-errors value="true"/>
        <no-step-log value="true"/>
    </report>

</configuration>
-->

<routes xmlns:xsi="http://www.w3.org/2001/XMLSchema-instance" xsi:noNamespaceSchemaLocation="http://sumo.dlr.de/xsd/routes_file.xsd">
    <vType id="veh_passenger" vClass="passenger"/>
    <trip id="veh0" type="veh_passenger" depart="0.00" departLane="best" departSpeed="max" from="376401312#0" to="-27222779#0"/>
    <trip id="veh1" type="veh_passenger" depart="38.51" departLane="best" departSpeed="max" from="-51508352#1" to="-4645391"/>
    <trip id="veh2" type="veh_passenger" depart="77.01" departLane="best" departSpeed="max" from="376401312#0" to="-27222779#0"/>
    <trip id="veh3" type="veh_passenger" depart="115.52" departLane="best" from="149935566#1" to="-27222779#0"/>
    <trip id="veh4" type="veh_passenger" depart="154.03" departLane="best" departSpeed="max" from="-51508352#1" to="-27222779#0"/>
    <trip id="veh5" type="veh_passenger" depart="192.54" departLane="best" departSpeed="max" from="27222779#0" to="362368395#2"/>
    <trip id="veh6" type="veh_passenger" depart="231.04" departLane="best" from="-40317921#1" to="362368395#2"/>
    <trip id="veh7" type="veh_passenger" depart="269.55" departLane="best" departSpeed="max" from="376401312#0" to="-27222779#0"/>
    <trip id="veh8" type="veh_passenger" depart="308.06" departLane="best" departSpeed="max" from="-51508352#1" to="-4645391"/>
    <trip id="veh9" type="veh_passenger" depart="346.57" departLane="best" departSpeed="max" from="-51508352#1" to="-4645391"/>
    <trip id="veh10" type="veh_passenger" depart="385.07" departLane="best" departSpeed="max" from="-51508352#1" to="-4645391"/>
    <trip id="veh12" type="veh_passenger" depart="462.09" departLane="best" departSpeed="max" from="27222779#0" to="362368395#2"/>
    <trip id="veh13" type="veh_passenger" depart="500.60" departLane="best" departSpeed="max" from="-51508352#1" to="-27222779#0"/>
    <trip id="veh14" type="veh_passenger" depart="539.10" departLane="best" departSpeed="max" from="-51508352#1" to="-4645391"/>
    <trip id="veh15" type="veh_passenger" depart="577.61" departLane="best" departSpeed="max" from="27222779#0" to="51508352#1"/>
    <trip id="veh16" type="veh_passenger" depart="616.12" departLane="best" from="-943542797#0" to="362368395#2"/>
    <trip id="veh17" type="veh_passenger" depart="654.63" departLane="best" departSpeed="max" from="-51508352#1" to="-27222779#0"/>
    <trip id="veh18" type="veh_passenger" depart="693.13" departLane="best" from="-943542797#0" to="362368395#2"/>
    <trip id="veh19" type="veh_passenger" depart="731.64" departLane="best" departSpeed="max" from="27222779#0" to="58561799#0"/>
    <trip id="veh20" type="veh_passenger" depart="770.15" departLane="best" departSpeed="max" from="27222779#0" to="40317921#1"/>
    <trip id="veh21" type="veh_passenger" depart="808.66" departLane="best" departSpeed="max" from="-51508352#1" to="-27222779#0"/>
    <trip id="veh22" type="veh_passenger" depart="847.16" departLane="best" departSpeed="max" from="376401312#0" to="-27222779#0"/>
    <trip id="veh23" type="veh_passenger" depart="885.67" departLane="best" departSpeed="max" from="27222779#0" to="362368395#2"/>
    <trip id="veh24" type="veh_passenger" depart="924.18" departLane="best" departSpeed="max" from="27222779#0" to="362368395#2"/>
    <trip id="veh25" type="veh_passenger" depart="962.69" departLane="best" departSpeed="max" from="-51508352#1" to="-4645391"/>
    <trip id="veh26" type="veh_passenger" depart="1001.19" departLane="best" from="-943542797#0" to="362368395#2"/>
    <trip id="veh27" type="veh_passenger" depart="1039.70" departLane="best" departSpeed="max" from="27222779#0" to="362368395#2"/>
    <trip id="veh28" type="veh_passenger" depart="1078.21" departLane="best" departSpeed="max" from="-51508352#1" to="-4645391"/>
    <trip id="veh30" type="veh_passenger" depart="1155.22" departLane="best" departSpeed="max" from="-51508352#1" to="-4645391"/>
    <trip id="veh31" type="veh_passenger" depart="1193.73" departLane="best" from="-392103887" to="-27222779#0"/>
    <trip id="veh32" type="veh_passenger" depart="1232.24" departLane="best" departSpeed="max" from="-51508352#1" to="-27222779#0"/>
    <trip id="veh33" type="veh_passenger" depart="1270.74" departLane="best" from="58561799#0" to="362368395#2"/>
    <trip id="veh34" type="veh_passenger" depart="1309.25" departLane="best" departSpeed="max" from="27222779#0" to="51476080#5"/>
    <trip id="veh35" type="veh_passenger" depart="1347.76" departLane="best" departSpeed="max" from="27222779#0" to="362368395#2"/>
    <trip id="veh36" type="veh_passenger" depart="1386.27" departLane="best" departSpeed="max" from="27222779#0" to="51508352#1"/>
    <trip id="veh37" type="veh_passenger" depart="1424.77" departLane="best" departSpeed="max" from="376401312#0" to="-27222779#2"/>
    <trip id="veh38" type="veh_passenger" depart="1463.28" departLane="best" departSpeed="max" from="27222779#0" to="362368395#2"/>
    <trip id="veh39" type="veh_passenger" depart="1501.79" departLane="best" departSpeed="max" from="27222779#0" to="362368395#2"/>
    <trip id="veh40" type="veh_passenger" depart="1540.30" departLane="best" departSpeed="max" from="-51508352#1" to="-4645391"/>
    <trip id="veh41" type="veh_passenger" depart="1578.80" departLane="best" departSpeed="max" from="27222779#0" to="51508352#1"/>
    <trip id="veh42" type="veh_passenger" depart="1617.31" departLane="best" departSpeed="max" from="27222779#0" to="362368395#2"/>
    <trip id="veh43" type="veh_passenger" depart="1655.82" departLane="best" departSpeed="max" from="-51508352#1" to="-27222779#0"/>
    <trip id="veh44" type="veh_passenger" depart="1694.33" departLane="best" departSpeed="max" from="27222779#0" to="362368395#2"/>
    <trip id="veh45" type="veh_passenger" depart="1732.83" departLane="best" departSpeed="max" from="27222779#0" to="362368395#2"/>
    <trip id="veh46" type="veh_passenger" depart="1771.34" departLane="best" departSpeed="max" from="27222779#0" to="51508352#1"/>
    <trip id="veh47" type="veh_passenger" depart="1809.85" departLane="best" departSpeed="max" from="376401312#0" to="-4645391"/>
    <trip id="veh48" type="veh_passenger" depart="1848.36" departLane="best" departSpeed="max" from="-51508352#1" to="-4645391"/>
    <trip id="veh49" type="veh_passenger" depart="1886.86" departLane="best" departSpeed="max" from="376401312#0" to="-27222779#0"/>
    <trip id="veh50" type="veh_passenger" depart="1925.37" departLane="best" departSpeed="max" from="376401312#0" to="-4645391"/>
    <trip id="veh51" type="veh_passenger" depart="1963.88" departLane="best" departSpeed="max" from="-51508352#1" to="-27222779#0"/>
    <trip id="veh52" type="veh_passenger" depart="2002.39" departLane="best" departSpeed="max" from="376401312#0" to="-4645391"/>
    <trip id="veh53" type="veh_passenger" depart="2040.89" departLane="best" departSpeed="max" from="376401312#0" to="-4645391"/>
    <trip id="veh54" type="veh_passenger" depart="2079.40" departLane="best" departSpeed="max" from="27222779#0" to="51508352#1"/>
    <trip id="veh55" type="veh_passenger" depart="2117.91" departLane="best" departSpeed="max" from="376401312#0" to="-27222779#0"/>
    <trip id="veh56" type="veh_passenger" depart="2156.41" departLane="best" departSpeed="max" from="376401312#0" to="-4645391"/>
    <trip id="veh57" type="veh_passenger" depart="2194.92" departLane="best" departSpeed="max" from="-51508352#1" to="-27222779#0"/>
    <trip id="veh58" type="veh_passenger" depart="2233.43" departLane="best" from="51476080#1" to="-4645391"/>
    <trip id="veh59" type="veh_passenger" depart="2271.94" departLane="best" departSpeed="max" from="-51508352#1" to="-27222779#0"/>
    <trip id="veh60" type="veh_passenger" depart="2310.44" departLane="best" departSpeed="max" from="27222779#0" to="362368395#2"/>
    <trip id="veh61" type="veh_passenger" depart="2348.95" departLane="best" from="-40317921#1" to="943540702#0"/>
    <trip id="veh62" type="veh_passenger" depart="2387.46" departLane="best" from="-40317922#1" to="362368395#2"/>
    <trip id="veh63" type="veh_passenger" depart="2425.97" departLane="best" departSpeed="max" from="376401312#0" to="-4645391"/>
    <trip id="veh64" type="veh_passenger" depart="2464.47" departLane="best" departSpeed="max" from="376401312#0" to="-27222779#0"/>
    <trip id="veh65" type="veh_passenger" depart="2502.98" departLane="best" departSpeed="max" from="376401312#0" to="-4645391"/>
    <trip id="veh66" type="veh_passenger" depart="2541.49" departLane="best" from="134941607#1" to="51508352#1"/>
    <trip id="veh67" type="veh_passenger" depart="2580.00" departLane="best" from="943540702#1" to="-4645391"/>
    <trip id="veh68" type="veh_passenger" depart="2618.50" departLane="best" from="58561799#1" to="-27222779#0"/>
    <trip id="veh69" type="veh_passenger" depart="2657.01" departLane="best" from="943540702#1" to="40317921#1"/>
    <trip id="veh70" type="veh_passenger" depart="2695.52" departLane="best" departSpeed="max" from="376401312#0" to="-4645391"/>
    <trip id="veh71" type="veh_passenger" depart="2734.03" departLane="best" from="27222779#2" to="362368395#2"/>
    <trip id="veh72" type="veh_passenger" depart="2772.53" departLane="best" departSpeed="max" from="27222779#0" to="362368395#2"/>
    <trip id="veh73" type="veh_passenger" depart="2811.04" departLane="best" from="27222779#1" to="51508352#1"/>
    <trip id="veh74" type="veh_passenger" depart="2849.55" departLane="best" departSpeed="max" from="27222779#0" to="362368395#2"/>
    <trip id="veh75" type="veh_passenger" depart="2888.06" departLane="best" departSpeed="max" from="376401312#0" to="-4645391"/>
    <trip id="veh76" type="veh_passenger" depart="2926.56" departLane="best" departSpeed="max" from="376401312#0" to="-4645391"/>
    <trip id="veh77" type="veh_passenger" depart="2965.07" departLane="best" departSpeed="max" from="-51508352#1" to="-27222779#2"/>
    <trip id="veh78" type="veh_passenger" depart="3003.58" departLane="best" from="58561799#1" to="362368395#2"/>
    <trip id="veh79" type="veh_passenger" depart="3042.09" departLane="best" departSpeed="max" from="27222779#0" to="362368395#2"/>
    <trip id="veh80" type="veh_passenger" depart="3080.59" departLane="best" departSpeed="max" from="27222779#0" to="51508352#1"/>
    <trip id="veh81" type="veh_passenger" depart="3119.10" departLane="best" departSpeed="max" from="376401312#0" to="-4645391"/>
    <trip id="veh82" type="veh_passenger" depart="3157.61" departLane="best" departSpeed="max" from="376401312#0" to="-4645391"/>
    <trip id="veh83" type="veh_passenger" depart="3196.12" departLane="best" departSpeed="max" from="-51508352#1" to="-27222779#0"/>
    <trip id="veh84" type="veh_passenger" depart="3234.62" departLane="best" departSpeed="max" from="376401312#0" to="-27222779#0"/>
    <trip id="veh85" type="veh_passenger" depart="3273.13" departLane="best" departSpeed="max" from="27222779#0" to="362368395#2"/>
    <trip id="veh86" type="veh_passenger" depart="3311.64" departLane="best" departSpeed="max" from="376401312#0" to="-27222779#0"/>
    <trip id="veh87" type="veh_passenger" depart="3350.14" departLane="best" departSpeed="max" from="27222779#0" to="51508352#1"/>
    <trip id="veh88" type="veh_passenger" depart="3388.65" departLane="best" departSpeed="max" from="27222779#0" to="51508352#1"/>
    <trip id="veh90" type="veh_passenger" depart="3465.67" departLane="best" departSpeed="max" from="376401312#0" to="-4645391"/>
    <trip id="veh91" type="veh_passenger" depart="3504.17" departLane="best" departSpeed="max" from="-51508352#1" to="-4645391"/>
    <trip id="veh92" type="veh_passenger" depart="3542.68" departLane="best" departSpeed="max" from="-51508352#1" to="-4645391"/>
    <trip id="veh93" type="veh_passenger" depart="3581.19" departLane="best" departSpeed="max" from="376401312#0" to="-27222779#0"/>
</routes>
