<?xml version="1.0" encoding="UTF-8"?>

<!-- generated on 2024-07-17 09:27:11 by Eclipse SUMO netconvert Version 1.20.0
<configuration xmlns:xsi="http://www.w3.org/2001/XMLSchema-instance" xsi:noNamespaceSchemaLocation="http://sumo.dlr.de/xsd/netconvertConfiguration.xsd">

    <input>
        <type-files value="${SUMO_HOME}/data/typemap/osmNetconvert.typ.xml"/>
        <osm-files value="osm_bbox.osm.xml.gz"/>
    </input>

    <output>
        <output-file value="osm.net.xml.gz"/>
        <output.street-names value="true"/>
        <output.original-names value="true"/>
    </output>

    <projection>
        <proj value="+proj=merc +a=6378137 +b=6378137 +lat_ts=0.0 +lon_0=0.0 +x_0=0.0 +y_0=0 +k=1.0 +units=m +nadgrids=@null +wktext +no_defs"/>
    </projection>

    <processing>
        <geometry.remove value="true"/>
        <roundabouts.guess value="true"/>
    </processing>

    <tls_building>
        <tls.discard-simple value="true"/>
        <tls.join value="true"/>
        <tls.guess-signals value="true"/>
        <tls.default-type value="actuated"/>
    </tls_building>

    <ramp_guessing>
        <ramps.guess value="true"/>
    </ramp_guessing>

    <edge_removal>
        <keep-edges.by-vclass value="passenger"/>
    </edge_removal>

    <junctions>
        <junctions.join value="true"/>
        <junctions.corner-detail value="5"/>
    </junctions>

</configuration>
-->

<net version="1.20" junctionCornerDetail="5" limitTurnSpeed="5.50" xmlns:xsi="http://www.w3.org/2001/XMLSchema-instance" xsi:noNamespaceSchemaLocation="http://sumo.dlr.de/xsd/net_file.xsd">

    <location netOffset="-1287410.67,-6131405.43" convBoundary="0.00,0.00,506.82,528.25" origBoundary="11.565007,48.147339,11.569755,48.150555" projParameter="+proj=merc +a=6378137 +b=6378137 +lat_ts=0.0 +lon_0=0.0 +x_0=0.0 +y_0=0 +k=1.0 +units=m +nadgrids=@null +wktext +no_defs"/>

    <type id="highway.residential" priority="3" numLanes="1" speed="13.89" disallow="tram rail_urban rail rail_electric rail_fast ship container cable_car subway aircraft wheelchair scooter drone" oneway="0"/>
    <type id="highway.secondary" priority="11" numLanes="1" speed="27.78" disallow="tram rail_urban rail rail_electric rail_fast ship container cable_car subway aircraft wheelchair scooter drone" oneway="0"/>

    <edge id=":1680609182_0" function="internal">
        <lane id=":1680609182_0_0" index="0" disallow="pedestrian tram rail_urban rail rail_electric rail_fast ship container cable_car subway aircraft wheelchair scooter drone" speed="13.89" length="0.30" shape="163.04,428.92 162.92,428.64"/>
    </edge>
    <edge id=":1680609182_1" function="internal">
        <lane id=":1680609182_1_0" index="0" disallow="pedestrian tram rail_urban rail rail_electric rail_fast ship container cable_car subway aircraft wheelchair scooter drone" speed="13.89" length="0.29" shape="165.86,427.37 165.98,427.65"/>
    </edge>
    <edge id=":2064183917_0" function="internal">
        <lane id=":2064183917_0_0" index="0" disallow="pedestrian tram rail_urban rail rail_electric rail_fast ship container cable_car subway aircraft wheelchair scooter drone" speed="3.65" length="4.67" shape="315.88,0.62 316.15,-0.79 316.73,-1.47 317.62,-1.42 318.82,-0.62"/>
    </edge>
    <edge id=":21457468_0" function="internal">
        <lane id=":21457468_0_0" index="0" disallow="tram rail_urban rail rail_electric rail_fast ship container cable_car subway aircraft wheelchair scooter drone" speed="7.09" length="10.52" width="7.10" shape="117.70,324.62 116.08,321.83 114.19,320.13 112.02,319.51 109.58,319.97"/>
    </edge>
    <edge id=":21457468_1" function="internal">
        <lane id=":21457468_1_0" index="0" disallow="tram rail_urban rail rail_electric rail_fast ship container cable_car subway aircraft wheelchair scooter drone" speed="13.89" length="14.73" shape="117.70,324.62 111.80,311.13"/>
    </edge>
    <edge id=":21457468_2" function="internal">
        <lane id=":21457468_2_0" index="0" disallow="tram rail_urban rail rail_electric rail_fast ship container cable_car subway aircraft wheelchair scooter drone" speed="3.65" length="1.44" shape="117.70,324.62 117.95,323.20"/>
    </edge>
    <edge id=":21457468_6" function="internal">
        <lane id=":21457468_6_0" index="0" disallow="tram rail_urban rail rail_electric rail_fast ship container cable_car subway aircraft wheelchair scooter drone" speed="3.65" length="3.23" shape="117.95,323.20 118.52,322.51 119.41,322.55 120.63,323.32"/>
    </edge>
    <edge id=":21457468_3" function="internal">
        <lane id=":21457468_3_0" index="0" disallow="tram rail_urban rail rail_electric rail_fast ship container cable_car subway aircraft wheelchair scooter drone" speed="13.89" length="14.69" shape="114.74,309.87 120.63,323.32"/>
    </edge>
    <edge id=":21457468_4" function="internal">
        <lane id=":21457468_4_0" index="0" disallow="tram rail_urban rail rail_electric rail_fast ship container cable_car subway aircraft wheelchair scooter drone" speed="7.60" length="3.43" width="7.10" shape="114.74,309.87 115.53,313.09 115.51,313.20"/>
    </edge>
    <edge id=":21457468_5" function="internal">
        <lane id=":21457468_5_0" index="0" disallow="tram rail_urban rail rail_electric rail_fast ship container cable_car subway aircraft wheelchair scooter drone" speed="3.65" length="1.44" shape="114.74,309.87 114.48,311.29"/>
    </edge>
    <edge id=":21457468_7" function="internal">
        <lane id=":21457468_7_0" index="0" disallow="tram rail_urban rail rail_electric rail_fast ship container cable_car subway aircraft wheelchair scooter drone" speed="7.60" length="9.59" width="7.10" shape="115.51,313.20 114.94,315.85 112.95,318.15 109.58,319.97"/>
    </edge>
    <edge id=":21457468_8" function="internal">
        <lane id=":21457468_8_0" index="0" disallow="tram rail_urban rail rail_electric rail_fast ship container cable_car subway aircraft wheelchair scooter drone" speed="3.65" length="3.23" shape="114.48,311.29 113.90,311.97 113.01,311.92 111.80,311.13"/>
    </edge>
    <edge id=":2269137859_0" function="internal">
        <lane id=":2269137859_0_0" index="0" disallow="tram rail_urban rail rail_electric rail_fast ship container cable_car subway aircraft wheelchair scooter drone" speed="3.65" length="4.67" shape="19.12,96.34 19.40,94.93 19.98,94.26 20.88,94.32 22.07,95.12"/>
    </edge>
    <edge id=":29564155_0" function="internal">
        <lane id=":29564155_0_0" index="0" disallow="pedestrian tram rail_urban rail rail_electric rail_fast ship container cable_car subway aircraft wheelchair scooter drone" speed="13.89" length="14.41" shape="335.98,47.91 330.28,34.67"/>
    </edge>
    <edge id=":29564155_1" function="internal">
        <lane id=":29564155_1_0" index="0" disallow="tram rail_urban rail rail_electric rail_fast ship container cable_car subway aircraft wheelchair scooter drone" speed="7.27" length="2.64" shape="335.98,47.91 335.49,45.42 335.53,45.33"/>
    </edge>
    <edge id=":29564155_2" function="internal">
        <lane id=":29564155_2_0" index="0" disallow="tram rail_urban rail rail_electric rail_fast ship container cable_car subway aircraft wheelchair scooter drone" speed="3.65" length="1.44" shape="335.98,47.91 336.23,46.49"/>
    </edge>
    <edge id=":29564155_10" function="internal">
        <lane id=":29564155_10_0" index="0" disallow="tram rail_urban rail rail_electric rail_fast ship container cable_car subway aircraft wheelchair scooter drone" speed="7.27" length="9.09" shape="335.53,45.33 336.30,43.16 338.42,41.14 341.84,39.34"/>
    </edge>
    <edge id=":29564155_11" function="internal">
        <lane id=":29564155_11_0" index="0" disallow="tram rail_urban rail rail_electric rail_fast ship container cable_car subway aircraft wheelchair scooter drone" speed="3.65" length="3.23" shape="336.23,46.49 336.80,45.80 337.70,45.85 338.91,46.63"/>
    </edge>
    <edge id=":29564155_3" function="internal">
        <lane id=":29564155_3_0" index="0" disallow="pedestrian tram rail_urban rail rail_electric rail_fast ship container cable_car subway aircraft wheelchair scooter drone" speed="6.53" length="9.05" shape="333.23,33.42 334.50,35.53 336.16,36.72 338.19,37.01 340.61,36.38"/>
    </edge>
    <edge id=":29564155_4" function="internal">
        <lane id=":29564155_4_0" index="0" disallow="pedestrian tram rail_urban rail rail_electric rail_fast ship container cable_car subway aircraft wheelchair scooter drone" speed="13.89" length="14.37" shape="333.23,33.42 338.91,46.63"/>
    </edge>
    <edge id=":29564155_5" function="internal">
        <lane id=":29564155_5_0" index="0" disallow="pedestrian tram rail_urban rail rail_electric rail_fast ship container cable_car subway aircraft wheelchair scooter drone" speed="3.65" length="1.44" shape="333.23,33.42 332.96,34.84"/>
    </edge>
    <edge id=":29564155_12" function="internal">
        <lane id=":29564155_12_0" index="0" disallow="pedestrian tram rail_urban rail rail_electric rail_fast ship container cable_car subway aircraft wheelchair scooter drone" speed="3.65" length="3.23" shape="332.96,34.84 332.38,35.52 331.49,35.46 330.28,34.67"/>
    </edge>
    <edge id=":29564155_6" function="internal">
        <lane id=":29564155_6_0" index="0" disallow="pedestrian tram rail_urban rail rail_electric rail_fast ship container cable_car subway aircraft wheelchair scooter drone" speed="6.66" length="9.22" shape="327.29,42.26 329.42,40.87 330.63,39.15 330.91,37.08 330.28,34.67"/>
    </edge>
    <edge id=":29564155_7" function="internal">
        <lane id=":29564155_7_0" index="0" disallow="tram rail_urban rail rail_electric rail_fast ship container cable_car subway aircraft wheelchair scooter drone" speed="13.89" length="14.48" shape="327.29,42.26 340.61,36.38"/>
        <lane id=":29564155_7_1" index="1" disallow="tram rail_urban rail rail_electric rail_fast ship container cable_car subway aircraft wheelchair scooter drone" speed="13.89" length="14.48" shape="328.65,45.15 341.84,39.34"/>
    </edge>
    <edge id=":29564155_9" function="internal">
        <lane id=":29564155_9_0" index="0" disallow="tram rail_urban rail rail_electric rail_fast ship container cable_car subway aircraft wheelchair scooter drone" speed="7.26" length="11.72" shape="328.65,45.15 332.28,43.84 335.21,43.65 337.41,44.58 338.91,46.63"/>
    </edge>
    <edge id=":2959331869_0" function="internal">
        <lane id=":2959331869_0_0" index="0" disallow="tram rail_urban rail rail_electric rail_fast ship container cable_car subway aircraft wheelchair scooter drone" speed="13.89" length="8.21" shape="264.16,70.38 266.27,69.22 267.53,68.09 268.80,66.95 270.91,65.79"/>
        <lane id=":2959331869_0_1" index="1" disallow="tram rail_urban rail rail_electric rail_fast ship container cable_car subway aircraft wheelchair scooter drone" speed="13.89" length="8.21" shape="264.16,70.38 266.47,69.68 268.16,69.56 269.85,69.44 272.15,68.74"/>
    </edge>
    <edge id=":345553442_0" function="internal">
        <lane id=":345553442_0_0" index="0" disallow="pedestrian tram rail_urban rail rail_electric rail_fast ship container cable_car subway aircraft wheelchair scooter drone" speed="7.66" length="12.16" width="8.50" shape="200.08,517.60 198.28,514.41 196.10,512.51 193.56,511.89 190.65,512.55"/>
    </edge>
    <edge id=":345553442_1" function="internal">
        <lane id=":345553442_1_0" index="0" disallow="pedestrian tram rail_urban rail rail_electric rail_fast ship container cable_car subway aircraft wheelchair scooter drone" speed="11.11" length="16.62" shape="200.08,517.60 194.59,501.92"/>
    </edge>
    <edge id=":345553442_2" function="internal">
        <lane id=":345553442_2_0" index="0" disallow="tram rail_urban rail rail_electric rail_fast ship container cable_car subway aircraft wheelchair scooter drone" speed="4.76" length="3.21" width="5.45" shape="200.08,517.60 200.54,515.19 201.03,514.62"/>
    </edge>
    <edge id=":345553442_9" function="internal">
        <lane id=":345553442_9_0" index="0" disallow="tram rail_urban rail rail_electric rail_fast ship container cable_car subway aircraft wheelchair scooter drone" speed="4.76" length="4.75" width="5.45" shape="201.03,514.62 201.53,514.03 203.05,514.13 205.10,515.48"/>
    </edge>
    <edge id=":345553442_3" function="internal">
        <lane id=":345553442_3_0" index="0" disallow="pedestrian tram rail_urban rail rail_electric rail_fast ship container cable_car subway aircraft wheelchair scooter drone" speed="7.20" length="11.05" width="5.45" shape="209.70,506.95 206.79,508.55 205.05,510.51 204.49,512.82 205.10,515.48"/>
    </edge>
    <edge id=":345553442_4" function="internal">
        <lane id=":345553442_4_0" index="0" disallow="pedestrian tram rail_urban rail rail_electric rail_fast ship container cable_car subway aircraft wheelchair scooter drone" speed="13.89" length="19.88" width="8.50" shape="209.70,506.95 203.49,509.13 198.45,510.43 194.28,511.39 190.65,512.55"/>
    </edge>
    <edge id=":345553442_5" function="internal">
        <lane id=":345553442_5_0" index="0" disallow="pedestrian tram rail_urban rail rail_electric rail_fast ship container cable_car subway aircraft wheelchair scooter drone" speed="8.35" length="14.96" shape="208.09,503.01 203.10,504.64 199.18,505.00 196.35,504.09 194.59,501.92"/>
    </edge>
    <edge id=":345553442_6" function="internal">
        <lane id=":345553442_6_0" index="0" disallow="pedestrian tram rail_urban rail rail_electric rail_fast ship container cable_car subway aircraft wheelchair scooter drone" speed="11.11" length="16.79" width="5.45" shape="200.47,499.38 202.32,504.49 203.30,508.58 204.02,512.10 205.10,515.48"/>
    </edge>
    <edge id=":345553442_7" function="internal">
        <lane id=":345553442_7_0" index="0" disallow="pedestrian tram rail_urban rail rail_electric rail_fast ship container cable_car subway aircraft wheelchair scooter drone" speed="8.34" length="3.98" width="8.50" shape="197.53,500.65 198.34,504.25 198.26,504.53"/>
    </edge>
    <edge id=":345553442_8" function="internal">
        <lane id=":345553442_8_0" index="0" disallow="pedestrian tram rail_urban rail rail_electric rail_fast ship container cable_car subway aircraft wheelchair scooter drone" speed="3.65" length="1.44" shape="197.53,500.65 197.27,502.07"/>
    </edge>
    <edge id=":345553442_10" function="internal">
        <lane id=":345553442_10_0" index="0" disallow="pedestrian tram rail_urban rail rail_electric rail_fast ship container cable_car subway aircraft wheelchair scooter drone" speed="8.34" length="11.64" width="8.50" shape="198.26,504.53 197.46,507.43 194.89,510.20 190.65,512.55"/>
    </edge>
    <edge id=":345553442_11" function="internal">
        <lane id=":345553442_11_0" index="0" disallow="pedestrian tram rail_urban rail rail_electric rail_fast ship container cable_car subway aircraft wheelchair scooter drone" speed="3.65" length="3.23" shape="197.27,502.07 196.70,502.75 195.80,502.70 194.59,501.92"/>
    </edge>
    <edge id=":345553456_0" function="internal">
        <lane id=":345553456_0_0" index="0" disallow="tram rail_urban rail rail_electric rail_fast ship container cable_car subway aircraft wheelchair scooter drone" speed="13.89" length="11.26" shape="49.73,167.02 45.22,156.70"/>
    </edge>
    <edge id=":345553456_1" function="internal">
        <lane id=":345553456_1_0" index="0" disallow="tram rail_urban rail rail_electric rail_fast ship container cable_car subway aircraft wheelchair scooter drone" speed="7.31" length="2.52" shape="49.73,167.02 49.26,164.54"/>
    </edge>
    <edge id=":345553456_2" function="internal">
        <lane id=":345553456_2_0" index="0" disallow="tram rail_urban rail rail_electric rail_fast ship container cable_car subway aircraft wheelchair scooter drone" speed="3.65" length="1.44" shape="49.73,167.02 49.99,165.60"/>
    </edge>
    <edge id=":345553456_9" function="internal">
        <lane id=":345553456_9_0" index="0" disallow="tram rail_urban rail rail_electric rail_fast ship container cable_car subway aircraft wheelchair scooter drone" speed="7.31" length="9.22" shape="49.26,164.54 50.08,162.28 52.21,160.24 55.62,158.43"/>
    </edge>
    <edge id=":345553456_10" function="internal">
        <lane id=":345553456_10_0" index="0" disallow="tram rail_urban rail rail_electric rail_fast ship container cable_car subway aircraft wheelchair scooter drone" speed="3.65" length="3.23" shape="49.99,165.60 50.56,164.92 51.46,164.97 52.67,165.76"/>
    </edge>
    <edge id=":345553456_3" function="internal">
        <lane id=":345553456_3_0" index="0" disallow="tram rail_urban rail rail_electric rail_fast ship container cable_car subway aircraft wheelchair scooter drone" speed="6.59" length="9.15" shape="48.15,155.41 49.48,157.55 51.17,158.76 53.21,159.05 55.62,158.43"/>
    </edge>
    <edge id=":345553456_4" function="internal">
        <lane id=":345553456_4_0" index="0" disallow="tram rail_urban rail rail_electric rail_fast ship container cable_car subway aircraft wheelchair scooter drone" speed="13.89" length="11.29" shape="48.15,155.41 52.67,165.76"/>
    </edge>
    <edge id=":345553456_5" function="internal">
        <lane id=":345553456_5_0" index="0" disallow="tram rail_urban rail rail_electric rail_fast ship container cable_car subway aircraft wheelchair scooter drone" speed="3.65" length="1.44" shape="48.15,155.41 47.91,156.83"/>
    </edge>
    <edge id=":345553456_11" function="internal">
        <lane id=":345553456_11_0" index="0" disallow="tram rail_urban rail rail_electric rail_fast ship container cable_car subway aircraft wheelchair scooter drone" speed="3.65" length="3.23" shape="47.91,156.83 47.33,157.52 46.44,157.48 45.22,156.70"/>
    </edge>
    <edge id=":345553456_6" function="internal">
        <lane id=":345553456_6_0" index="0" disallow="tram rail_urban rail rail_electric rail_fast ship container cable_car subway aircraft wheelchair scooter drone" speed="6.48" length="9.03" shape="42.32,164.05 44.44,162.76 45.64,161.11 45.90,159.09 45.22,156.70"/>
    </edge>
    <edge id=":345553456_7" function="internal">
        <lane id=":345553456_7_0" index="0" disallow="tram rail_urban rail rail_electric rail_fast ship container cable_car subway aircraft wheelchair scooter drone" speed="13.89" length="14.44" shape="42.32,164.05 55.62,158.43"/>
    </edge>
    <edge id=":345553456_8" function="internal">
        <lane id=":345553456_8_0" index="0" disallow="tram rail_urban rail rail_electric rail_fast ship container cable_car subway aircraft wheelchair scooter drone" speed="7.35" length="11.78" shape="42.32,164.05 46.01,162.86 48.97,162.75 51.19,163.71 52.67,165.76"/>
    </edge>
    <edge id=":618163560_0" function="internal">
        <lane id=":618163560_0_0" index="0" disallow="pedestrian tram rail_urban rail rail_electric rail_fast ship container cable_car subway aircraft wheelchair scooter drone" speed="13.89" length="3.05" width="4.25" shape="290.07,473.38 289.28,473.82 288.80,474.23 288.31,474.64 287.52,475.07"/>
        <lane id=":618163560_0_1" index="1" disallow="pedestrian tram rail_urban rail rail_electric rail_fast ship container cable_car subway aircraft wheelchair scooter drone" speed="13.89" length="3.05" width="4.25" shape="288.76,470.45 287.92,470.74 287.30,470.82 286.68,470.89 285.84,471.16"/>
    </edge>
    <edge id=":618697472_0" function="internal">
        <lane id=":618697472_0_0" index="0" disallow="pedestrian tram rail_urban rail rail_electric rail_fast ship container cable_car subway aircraft wheelchair scooter drone" speed="3.65" length="4.67" shape="495.35,410.96 495.11,412.38 494.54,413.07 493.65,413.03 492.43,412.26"/>
    </edge>
    <edge id=":8736309647_0" function="internal">
        <lane id=":8736309647_0_0" index="0" disallow="pedestrian tram rail_urban rail rail_electric rail_fast ship container cable_car subway aircraft wheelchair scooter drone" speed="13.89" length="8.00" shape="180.66,469.66 177.48,462.31"/>
    </edge>
    <edge id=":8736309647_1" function="internal">
        <lane id=":8736309647_1_0" index="0" disallow="pedestrian tram rail_urban rail rail_electric rail_fast ship container cable_car subway aircraft wheelchair scooter drone" speed="13.89" length="8.40" shape="180.42,461.04 181.86,463.11 183.48,464.08 185.10,465.06 186.53,467.12"/>
        <lane id=":8736309647_1_1" index="1" disallow="pedestrian tram rail_urban rail rail_electric rail_fast ship container cable_car subway aircraft wheelchair scooter drone" speed="13.89" length="8.40" shape="180.42,461.04 183.59,468.39"/>
    </edge>
    <edge id=":8748896839_0" function="internal">
        <lane id=":8748896839_0_0" index="0" disallow="tram rail_urban rail rail_electric rail_fast ship container cable_car subway aircraft wheelchair scooter drone" speed="4.76" length="7.96" width="5.45" shape="205.79,517.11 205.33,519.53 204.34,520.69 202.82,520.59 200.77,519.24"/>
    </edge>
    <edge id=":967091764_0" function="internal">
        <lane id=":967091764_0_0" index="0" disallow="pedestrian tram rail_urban rail rail_electric rail_fast ship container cable_car subway aircraft wheelchair scooter drone" speed="6.55" length="9.05" shape="485.04,395.68 483.73,393.59 482.06,392.40 480.03,392.13 477.63,392.76"/>
    </edge>
    <edge id=":967091764_1" function="internal">
        <lane id=":967091764_1_0" index="0" disallow="pedestrian tram rail_urban rail rail_electric rail_fast ship container cable_car subway aircraft wheelchair scooter drone" speed="13.89" length="14.36" shape="485.04,395.68 479.40,382.48"/>
    </edge>
    <edge id=":967091764_2" function="internal">
        <lane id=":967091764_2_0" index="0" disallow="pedestrian tram rail_urban rail rail_electric rail_fast ship container cable_car subway aircraft wheelchair scooter drone" speed="3.65" length="1.44" shape="485.04,395.68 485.29,394.26"/>
    </edge>
    <edge id=":967091764_10" function="internal">
        <lane id=":967091764_10_0" index="0" disallow="pedestrian tram rail_urban rail rail_electric rail_fast ship container cable_car subway aircraft wheelchair scooter drone" speed="3.65" length="3.23" shape="485.29,394.26 485.86,393.57 486.75,393.61 487.97,394.39"/>
    </edge>
    <edge id=":967091764_3" function="internal">
        <lane id=":967091764_3_0" index="0" disallow="pedestrian tram rail_urban rail rail_electric rail_fast ship container cable_car subway aircraft wheelchair scooter drone" speed="6.85" length="10.25" shape="490.28,385.70 488.19,387.06 487.11,388.96 487.03,391.40 487.97,394.39"/>
    </edge>
    <edge id=":967091764_4" function="internal">
        <lane id=":967091764_4_0" index="0" disallow="tram rail_urban rail rail_electric rail_fast ship container cable_car subway aircraft wheelchair scooter drone" speed="13.89" length="14.51" shape="490.28,385.70 487.30,387.22 484.73,388.90 481.77,390.74 477.63,392.76"/>
        <lane id=":967091764_4_1" index="1" disallow="tram rail_urban rail rail_electric rail_fast ship container cable_car subway aircraft wheelchair scooter drone" speed="13.89" length="14.51" shape="490.28,385.70 487.10,386.76 484.11,387.43 480.72,388.25 476.38,389.81"/>
    </edge>
    <edge id=":967091764_6" function="internal">
        <lane id=":967091764_6_0" index="0" disallow="tram rail_urban rail rail_electric rail_fast ship container cable_car subway aircraft wheelchair scooter drone" speed="7.64" length="12.92" shape="490.28,385.70 486.55,386.78 483.49,386.60 481.11,385.17 479.40,382.48"/>
    </edge>
    <edge id=":967091764_7" function="internal">
        <lane id=":967091764_7_0" index="0" disallow="pedestrian tram rail_urban rail rail_electric rail_fast ship container cable_car subway aircraft wheelchair scooter drone" speed="13.89" length="14.28" shape="482.36,381.26 487.97,394.39"/>
    </edge>
    <edge id=":967091764_8" function="internal">
        <lane id=":967091764_8_0" index="0" disallow="tram rail_urban rail rail_electric rail_fast ship container cable_car subway aircraft wheelchair scooter drone" speed="7.34" length="2.50" shape="482.36,381.26 482.78,383.72"/>
    </edge>
    <edge id=":967091764_9" function="internal">
        <lane id=":967091764_9_0" index="0" disallow="tram rail_urban rail rail_electric rail_fast ship container cable_car subway aircraft wheelchair scooter drone" speed="3.65" length="1.44" shape="482.36,381.26 482.08,382.67"/>
    </edge>
    <edge id=":967091764_11" function="internal">
        <lane id=":967091764_11_0" index="0" disallow="tram rail_urban rail rail_electric rail_fast ship container cable_car subway aircraft wheelchair scooter drone" speed="7.34" length="9.21" shape="482.78,383.72 481.93,385.97 479.79,388.00 476.38,389.81"/>
    </edge>
    <edge id=":967091764_12" function="internal">
        <lane id=":967091764_12_0" index="0" disallow="tram rail_urban rail rail_electric rail_fast ship container cable_car subway aircraft wheelchair scooter drone" speed="3.65" length="3.23" shape="482.08,382.67 481.49,383.35 480.60,383.28 479.40,382.48"/>
    </edge>

    <edge id="-27222779#2" from="345553456" to="2269137859" name="Luisenstraße" priority="3" type="highway.residential" shape="48.97,161.22 43.08,147.89 25.04,106.50 20.59,95.73">
        <lane id="-27222779#2_0" index="0" disallow="tram rail_urban rail rail_electric rail_fast ship container cable_car subway aircraft wheelchair scooter drone" speed="13.89" length="65.77" shape="45.22,156.70 41.62,148.53 23.56,107.12 19.12,96.34">
            <param key="origId" value="27222779"/>
        </lane>
    </edge>
    <edge id="-344664988#1" from="29564155" to="2064183917" name="Arcisstraße" priority="11" type="highway.secondary" shape="334.54,40.63 330.57,31.25 317.35,0.00">
        <lane id="-344664988#1_0" index="0" disallow="pedestrian tram rail_urban rail rail_electric rail_fast ship container cable_car subway aircraft wheelchair scooter drone" speed="13.89" length="36.97" shape="330.28,34.67 329.10,31.87 315.88,0.62">
            <param key="origId" value="344664988"/>
        </lane>
    </edge>
    <edge id="-392103887" from="8736309647" to="1680609182" name="Luisenstraße" priority="3" type="highway.residential">
        <lane id="-392103887_0" index="0" disallow="pedestrian tram rail_urban rail rail_electric rail_fast ship container cable_car subway aircraft wheelchair scooter drone" speed="13.89" length="36.39" shape="177.48,462.31 163.04,428.92">
            <param key="origId" value="392103887"/>
        </lane>
    </edge>
    <edge id="-40317921" from="8748896839" to="345553442" name="Luisenstraße" priority="3" type="highway.residential">
        <lane id="-40317921_0" index="0" disallow="tram rail_urban rail rail_electric rail_fast ship container cable_car subway aircraft wheelchair scooter drone" speed="8.33" length="1.77" width="5.45" shape="200.77,519.24 200.08,517.60">
            <param key="origId" value="40317921"/>
        </lane>
    </edge>
    <edge id="-40317922#2" from="21457468" to="345553456" name="Luisenstraße" priority="3" type="highway.residential" shape="116.23,317.37 90.29,257.16 53.76,172.33 48.97,161.22">
        <lane id="-40317922#2_0" index="0" disallow="tram rail_urban rail rail_electric rail_fast ship container cable_car subway aircraft wheelchair scooter drone" speed="13.89" length="156.91" shape="111.80,311.13 88.82,257.79 52.29,172.97 49.73,167.02">
            <param key="origId" value="40317922"/>
        </lane>
    </edge>
    <edge id="-40317922#4" from="1680609182" to="21457468" name="Luisenstraße" priority="3" type="highway.residential" shape="164.45,428.14 136.82,363.66 116.23,317.37">
        <lane id="-40317922#4_0" index="0" disallow="tram rail_urban rail rail_electric rail_fast ship container cable_car subway aircraft wheelchair scooter drone" speed="13.89" length="113.42" shape="162.92,428.64 135.36,364.30 117.70,324.62">
            <param key="origId" value="40317922"/>
        </lane>
    </edge>
    <edge id="-51476080#7" from="967091764" to="29564155" name="Arcisstraße" priority="11" type="highway.secondary" shape="483.62,388.50 479.66,378.91 473.60,364.17 436.80,279.01 429.33,261.78 421.69,243.96 409.07,214.51 380.80,148.46 345.68,66.10 340.37,53.96 339.28,51.45 334.54,40.63">
        <lane id="-51476080#7_0" index="0" disallow="tram rail_urban rail rail_electric rail_fast ship container cable_car subway aircraft wheelchair scooter drone" speed="13.89" length="364.02" shape="479.40,382.48 478.19,379.51 472.12,364.79 435.33,279.65 427.86,262.41 420.22,244.59 407.59,215.14 379.33,149.09 344.21,66.74 338.90,54.60 337.81,52.10 335.98,47.91">
            <param key="origId" value="51476080"/>
        </lane>
    </edge>
    <edge id="-51508352#1" from="618697472" to="967091764" name="Arcisstraße" priority="11" type="highway.secondary" shape="493.89,411.61 488.06,398.54 483.62,388.50">
        <lane id="-51508352#1_0" index="0" disallow="pedestrian tram rail_urban rail rail_electric rail_fast ship container cable_car subway aircraft wheelchair scooter drone" speed="13.89" length="18.15" shape="492.43,412.26 486.60,399.19 485.04,395.68">
            <param key="origId" value="51508352"/>
        </lane>
    </edge>
    <edge id="-943542797#1" from="345553442" to="8736309647" name="Luisenstraße" priority="3" type="highway.residential" shape="199.35,508.88 195.71,500.47 180.54,465.35">
        <lane id="-943542797#1_0" index="0" disallow="pedestrian tram rail_urban rail rail_electric rail_fast ship container cable_car subway aircraft wheelchair scooter drone" speed="13.89" length="35.14" shape="194.59,501.92 194.24,501.11 180.66,469.66">
            <param key="origId" value="943542797"/>
        </lane>
    </edge>
    <edge id="134941607#0" from="9094806366" to="345553456" name="Gabelsbergerstraße" priority="11" type="highway.secondary" spreadType="center" shape="0.00,182.06 38.61,165.63 48.97,161.22">