<?xml version="1.0" encoding="UTF-8"?>

<!-- generated on 2024-09-05 10:05:22.376729 by randomTrips.py v1_20_0+0002-343658e7c64
<configuration>
    <net-file value="osm.net.xml.gz"/>
    <output-trip-file value="osm.passenger.trips.xml"/>
    <route-file value="osm.passenger.rou.xml"/>
    <prefix value="veh"/>
    <trip-attributes value="departLane=&quot;best&quot;"/>
    <fringe-start-attributes value="departSpeed=&quot;max&quot;"/>
    <vehicle-class value="passenger"/>
    <lanes value="True"/>
    <fringe-factor value="50"/>
    <allow-fringe.min-length value="1000.0"/>
    <via-edge-types value="highway.motorway,highway.motorway_link,highway.trunk_link,highway.primary_link,highway.secondary_link,highway.tertiary_link"/>
    <min-distance value="300.0"/>
    <min-distance.fringe value="10.0"/>
    <remove-loops value="True"/>
    <validate value="True"/>
    <insertion-density value="500.0"/>
</configuration>
-->

<!-- generated on 2024-09-05 10:05:22 by Eclipse SUMO duarouter Version 1.20.0
<configuration xmlns:xsi="http://www.w3.org/2001/XMLSchema-instance" xsi:noNamespaceSchemaLocation="http://sumo.dlr.de/xsd/duarouterConfiguration.xsd">

    <input>
        <net-file value="osm.net.xml.gz"/>
        <route-files value="osm.passenger.trips.xml"/>
    </input>

    <output>
        <output-file value="osm.passenger.rou.xml"/>
        <alternatives-output value="NUL"/>
    </output>

    <processing>
        <remove-loops value="true"/>
    </processing>

    <time>
        <begin value="0.0"/>
        <end value="3600.0"/>
    </time>

    <report>
        <no-warnings value="true"/>
        <ignore-errors value="true"/>
        <no-step-log value="true"/>
    </report>

</configuration>
-->

<routes xmlns:xsi="http://www.w3.org/2001/XMLSchema-instance" xsi:noNamespaceSchemaLocation="http://sumo.dlr.de/xsd/routes_file.xsd">
    <vType id="veh_passenger" vClass="passenger"/>
    <vehicle id="veh0" type="veh_passenger" depart="0.00" departLane="best" departSpeed="max">
        <route edges="376401312#0 149935566#1 149935566#2 58561800#1 58561799#0 58561799#1 -943542797#0 -392103887 -40317922#4 -40317922#3 -40317922#2 -40317922#1 -27222779#2 -27222779#1 -27222779#0"/>
    </vehicle>
    <vehicle id="veh1" type="veh_passenger" depart="3.85" departLane="best" departSpeed="max">
        <route edges="-51508352#1 149935566#1 149935566#2 58561800#1 58561799#0 58561799#1 -943542797#0 -392103887 -40317922#4 -40317922#3 4645392#1 4645392#3 -4645391"/>
    </vehicle>
    <vehicle id="veh2" type="veh_passenger" depart="7.70" departLane="best" departSpeed="max">
        <route edges="376401312#0 149935566#1 149935566#2 58561800#1 58561799#0 58561799#1 -943542797#0 -392103887 -40317922#4 -40317922#3 -40317922#2 -40317922#1 -27222779#2 -27222779#1 -27222779#0"/>
    </vehicle>
    <vehicle id="veh3" type="veh_passenger" depart="11.55" departLane="best">
        <route edges="149935566#1 149935566#2 58561800#1 58561799#0 58561799#1 -943542797#0 -392103887 -40317922#4 -40317922#3 -40317922#2 -40317922#1 -27222779#2 -27222779#1 -27222779#0"/>
    </vehicle>
    <vehicle id="veh4" type="veh_passenger" depart="15.40" departLane="best" departSpeed="max">
        <route edges="-51508352#1 149935566#1 149935566#2 58561800#1 58561799#0 58561799#1 -943542797#0 -392103887 -40317922#4 -40317922#3 -40317922#2 -40317922#1 -27222779#2 -27222779#1 -27222779#0"/>
    </vehicle>
    <vehicle id="veh5" type="veh_passenger" depart="19.25" departLane="best" departSpeed="max">
        <route edges="27222779#0 27222779#1 27222779#2 40317927#1 943540703#0 943540703#1 943540703#2 943540702#0 943540702#1 362368395#2"/>
    </vehicle>
    <vehicle id="veh6" type="veh_passenger" depart="23.10" departLane="best">
        <route edges="-40317921#1 -943542797#0 -392103887 -40317922#4 -40317922#3 -40317922#2 -40317922#1 40317927#1 943540703#0 943540703#1 943540703#2 943540702#0 943540702#1 362368395#2"/>
    </vehicle>
    <vehicle id="veh7" type="veh_passenger" depart="26.96" departLane="best" departSpeed="max">
        <route edges="376401312#0 149935566#1 149935566#2 58561800#1 58561799#0 58561799#1 -943542797#0 -392103887 -40317922#4 -40317922#3 -40317922#2 -40317922#1 -27222779#2 -27222779#1 -27222779#0"/>
    </vehicle>
    <vehicle id="veh8" type="veh_passenger" depart="30.81" departLane="best" departSpeed="max">
        <route edges="-51508352#1 149935566#1 149935566#2 58561800#1 58561799#0 58561799#1 -943542797#0 -392103887 -40317922#4 -40317922#3 4645392#1 4645392#3 -4645391"/>
    </vehicle>
    <vehicle id="veh9" type="veh_passenger" depart="34.66" departLane="best" departSpeed="max">
        <route edges="-51508352#1 149935566#1 149935566#2 58561800#1 58561799#0 58561799#1 -943542797#0 -392103887 -40317922#4 -40317922#3 4645392#1 4645392#3 -4645391"/>
    </vehicle>
    <vehicle id="veh10" type="veh_passenger" depart="38.51" departLane="best" departSpeed="max">
        <route edges="-51508352#1 149935566#1 149935566#2 58561800#1 58561799#0 58561799#1 -943542797#0 -392103887 -40317922#4 -40317922#3 4645392#1 4645392#3 -4645391"/>
    </vehicle>
    <vehicle id="veh12" type="veh_passenger" depart="46.21" departLane="best" departSpeed="max">
        <route edges="27222779#0 27222779#1 27222779#2 40317927#1 943540703#0 943540703#1 943540703#2 943540702#0 943540702#1 362368395#2"/>
    </vehicle>
    <vehicle id="veh13" type="veh_passenger" depart="50.06" departLane="best" departSpeed="max">
        <route edges="-51508352#1 149935566#1 149935566#2 58561800#1 58561799#0 58561799#1 -943542797#0 -392103887 -40317922#4 -40317922#3 -40317922#2 -40317922#1 -27222779#2 -27222779#1 -27222779#0"/>
    </vehicle>
    <vehicle id="veh14" type="veh_passenger" depart="53.91" departLane="best" departSpeed="max">
        <route edges="-51508352#1 149935566#1 149935566#2 58561800#1 58561799#0 58561799#1 -943542797#0 -392103887 -40317922#4 -40317922#3 4645392#1 4645392#3 -4645391"/>
    </vehicle>
    <vehicle id="veh15" type="veh_passenger" depart="57.76" departLane="best" departSpeed="max">
        <route edges="27222779#0 27222779#1 27222779#2 40317927#1 943540703#0 943540703#1 943540703#2 943540702#0 943540702#1 51476080#1 51476080#2 51476080#3 51476080#4 51476080#5 51476080#6 51508352#1"/>
    </vehicle>
    <vehicle id="veh16" type="veh_passenger" depart="61.61" departLane="best">
        <route edges="-943542797#0 -392103887 -40317922#4 -40317922#3 -40317922#2 -40317922#1 40317927#1 943540703#0 943540703#1 943540703#2 943540702#0 943540702#1 362368395#2"/>
    </vehicle>
    <vehicle id="veh17" type="veh_passenger" depart="65.46" departLane="best" departSpeed="max">
        <route edges="-51508352#1 149935566#1 149935566#2 58561800#1 58561799#0 58561799#1 -943542797#0 -392103887 -40317922#4 -40317922#3 -40317922#2 -40317922#1 -27222779#2 -27222779#1 -27222779#0"/>
    </vehicle>
    <vehicle id="veh18" type="veh_passenger" depart="69.31" departLane="best">
        <route edges="-943542797#0 -392103887 -40317922#4 -40317922#3 -40317922#2 -40317922#1 40317927#1 943540703#0 943540703#1 943540703#2 943540702#0 943540702#1 362368395#2"/>
    </vehicle>
    <vehicle id="veh19" type="veh_passenger" depart="73.16" departLane="best" departSpeed="max">
        <route edges="27222779#0 27222779#1 27222779#2 40317927#1 943540703#0 943540703#1 943540703#2 943540702#0 943540702#1 51476080#1 51476080#2 51476080#3 51476080#4 51476080#5 51476080#6 149935566#1 149935566#2 58561800#1 58561799#0"/>
    </vehicle>
    <vehicle id="veh20" type="veh_passenger" depart="77.01" departLane="best" departSpeed="max">
        <route edges="27222779#0 27222779#1 27222779#2 40317922#1 40317922#2 40317922#3 40317922#4 392103887 943542797#0 40317921#1"/>
    </vehicle>
    <vehicle id="veh21" type="veh_passenger" depart="80.87" departLane="best" departSpeed="max">
        <route edges="-51508352#1 149935566#1 149935566#2 58561800#1 58561799#0 58561799#1 -943542797#0 -392103887 -40317922#4 -40317922#3 -40317922#2 -40317922#1 -27222779#2 -27222779#1 -27222779#0"/>
    </vehicle>
    <vehicle id="veh22" type="veh_passenger" depart="84.72" departLane="best" departSpeed="max">
        <route edges="376401312#0 149935566#1 149935566#2 58561800#1 58561799#0 58561799#1 -943542797#0 -392103887 -40317922#4 -40317922#3 -40317922#2 -40317922#1 -27222779#2 -27222779#1 -27222779#0"/>
    </vehicle>
    <vehicle id="veh23" type="veh_passenger" depart="88.57" departLane="best" departSpeed="max">
        <route edges="27222779#0 27222779#1 27222779#2 40317927#1 943540703#0 943540703#1 943540703#2 943540702#0 943540702#1 362368395#2"/>
    </vehicle>
    <vehicle id="veh24" type="veh_passenger" depart="92.42" departLane="best" departSpeed="max">
        <route edges="27222779#0 27222779#1 27222779#2 40317927#1 943540703#0 943540703#1 943540703#2 943540702#0 943540702#1 362368395#2"/>
    </vehicle>
    <vehicle id="veh25" type="veh_passenger" depart="96.27" departLane="best" departSpeed="max">
        <route edges="-51508352#1 149935566#1 149935566#2 58561800#1 58561799#0 58561799#1 -943542797#0 -392103887 -40317922#4 -40317922#3 4645392#1 4645392#3 -4645391"/>
    </vehicle>
    <vehicle id="veh26" type="veh_passenger" depart="100.12" departLane="best">
        <route edges="-943542797#0 -392103887 -40317922#4 -40317922#3 -40317922#2 -40317922#1 40317927#1 943540703#0 943540703#1 943540703#2 943540702#0 943540702#1 362368395#2"/>
    </vehicle>
    <vehicle id="veh27" type="veh_passenger" depart="103.97" departLane="best" departSpeed="max">
        <route edges="27222779#0 27222779#1 27222779#2 40317927#1 943540703#0 943540703#1 943540703#2 943540702#0 943540702#1 362368395#2"/>
    </vehicle>
    <vehicle id="veh28" type="veh_passenger" depart="107.82" departLane="best" departSpeed="max">
        <route edges="-51508352#1 149935566#1 149935566#2 58561800#1 58561799#0 58561799#1 -943542797#0 -392103887 -40317922#4 -40317922#3 4645392#1 4645392#3 -4645391"/>
    </vehicle>
    <vehicle id="veh30" type="veh_passenger" depart="115.52" departLane="best" departSpeed="max">
        <route edges="-51508352#1 149935566#1 149935566#2 58561800#1 58561799#0 58561799#1 -943542797#0 -392103887 -40317922#4 -40317922#3 4645392#1 4645392#3 -4645391"/>
    </vehicle>
    <vehicle id="veh31" type="veh_passenger" depart="119.37" departLane="best">
        <route edges="-392103887 -40317922#4 -40317922#3 -40317922#2 -40317922#1 -27222779#2 -27222779#1 -27222779#0"/>
    </vehicle>
    <vehicle id="veh32" type="veh_passenger" depart="123.22" departLane="best" departSpeed="max">
        <route edges="-51508352#1 149935566#1 149935566#2 58561800#1 58561799#0 58561799#1 -943542797#0 -392103887 -40317922#4 -40317922#3 -40317922#2 -40317922#1 -27222779#2 -27222779#1 -27222779#0"/>
    </vehicle>
    <vehicle id="veh33" type="veh_passenger" depart="127.07" departLane="best">
        <route edges="58561799#0 58561799#1 -943542797#0 -392103887 -40317922#4 -40317922#3 -40317922#2 -40317922#1 40317927#1 943540703#0 943540703#1 943540703#2 943540702#0 943540702#1 362368395#2"/>
    </vehicle>
    <vehicle id="veh34" type="veh_passenger" depart="130.93" departLane="best" departSpeed="max">
        <route edges="27222779#0 27222779#1 27222779#2 40317927#1 943540703#0 943540703#1 943540703#2 943540702#0 943540702#1 51476080#1 51476080#2 51476080#3 51476080#4 51476080#5"/>
    </vehicle>
    <vehicle id="veh35" type="veh_passenger" depart="134.78" departLane="best" departSpeed="max">
        <route edges="27222779#0 27222779#1 27222779#2 40317927#1 943540703#0 943540703#1 943540703#2 943540702#0 943540702#1 362368395#2"/>
    </vehicle>
    <vehicle id="veh36" type="veh_passenger" depart="138.63" departLane="best" departSpeed="max">
        <route edges="27222779#0 27222779#1 27222779#2 40317927#1 943540703#0 943540703#1 943540703#2 943540702#0 943540702#1 51476080#1 51476080#2 51476080#3 51476080#4 51476080#5 51476080#6 51508352#1"/>
    </vehicle>
    <vehicle id="veh37" type="veh_passenger" depart="142.48" departLane="best" departSpeed="max">
        <route edges="376401312#0 149935566#1 149935566#2 58561800#1 58561799#0 58561799#1 -943542797#0 -392103887 -40317922#4 -40317922#3 -40317922#2 -40317922#1 -27222779#2"/>
    </vehicle>
    <vehicle id="veh38" type="veh_passenger" depart="146.33" departLane="best" departSpeed="max">
        <route edges="27222779#0 27222779#1 27222779#2 40317927#1 943540703#0 943540703#1 943540703#2 943540702#0 943540702#1 362368395#2"/>
    </vehicle>
    <vehicle id="veh39" type="veh_passenger" depart="150.18" departLane="best" departSpeed="max">
        <route edges="27222779#0 27222779#1 27222779#2 40317927#1 943540703#0 943540703#1 943540703#2 943540702#0 943540702#1 362368395#2"/>
    </vehicle>
    <vehicle id="veh40" type="veh_passenger" depart="154.03" departLane="best" departSpeed="max">
        <route edges="-51508352#1 149935566#1 149935566#2 58561800#1 58561799#0 58561799#1 -943542797#0 -392103887 -40317922#4 -40317922#3 4645392#1 4645392#3 -4645391"/>
    </vehicle>
    <vehicle id="veh41" type="veh_passenger" depart="157.88" departLane="best" departSpeed="max">
        <route edges="27222779#0 27222779#1 27222779#2 40317927#1 943540703#0 943540703#1 943540703#2 943540702#0 943540702#1 51476080#1 51476080#2 51476080#3 51476080#4 51476080#5 51476080#6 51508352#1"/>
    </vehicle>
    <vehicle id="veh42" type="veh_passenger" depart="161.73" departLane="best" departSpeed="max">
        <route edges="27222779#0 27222779#1 27222779#2 40317927#1 943540703#0 943540703#1 943540703#2 943540702#0 943540702#1 362368395#2"/>
    </vehicle>
    <vehicle id="veh43" type="veh_passenger" depart="165.58" departLane="best" departSpeed="max">
        <route edges="-51508352#1 149935566#1 149935566#2 58561800#1 58561799#0 58561799#1 -943542797#0 -392103887 -40317922#4 -40317922#3 -40317922#2 -40317922#1 -27222779#2 -27222779#1 -27222779#0"/>
    </vehicle>
    <vehicle id="veh44" type="veh_passenger" depart="169.43" departLane="best" departSpeed="max">
        <route edges="27222779#0 27222779#1 27222779#2 40317927#1 943540703#0 943540703#1 943540703#2 943540702#0 943540702#1 362368395#2"/>
    </vehicle>
    <vehicle id="veh45" type="veh_passenger" depart="173.28" departLane="best" departSpeed="max">
        <route edges="27222779#0 27222779#1 27222779#2 40317927#1 943540703#0 943540703#1 943540703#2 943540702#0 943540702#1 362368395#2"/>
    </vehicle>
    <vehicle id="veh46" type="veh_passenger" depart="177.13" departLane="best" departSpeed="max">
        <route edges="27222779#0 27222779#1 27222779#2 40317927#1 943540703#0 943540703#1 943540703#2 943540702#0 943540702#1 51476080#1 51476080#2 51476080#3 51476080#4 51476080#5 51476080#6 51508352#1"/>
    </vehicle>
    <vehicle id="veh47" type="veh_passenger" depart="180.98" departLane="best" departSpeed="max">
        <route edges="376401312#0 149935566#1 149935566#2 58561800#1 58561799#0 58561799#1 -943542797#0 -392103887 -40317922#4 -40317922#3 4645392#1 4645392#3 -4645391"/>
    </vehicle>
    <vehicle id="veh48" type="veh_passenger" depart="184.84" departLane="best" departSpeed="max">
        <route edges="-51508352#1 149935566#1 149935566#2 58561800#1 58561799#0 58561799#1 -943542797#0 -392103887 -40317922#4 -40317922#3 4645392#1 4645392#3 -4645391"/>
    </vehicle>
    <vehicle id="veh49" type="veh_passenger" depart="188.69" departLane="best" departSpeed="max">
        <route edges="376401312#0 149935566#1 149935566#2 58561800#1 58561799#0 58561799#1 -943542797#0 -392103887 -40317922#4 -40317922#3 -40317922#2 -40317922#1 -27222779#2 -27222779#1 -27222779#0"/>
    </vehicle>
    <vehicle id="veh50" type="veh_passenger" depart="192.54" departLane="best" departSpeed="max">
        <route edges="376401312#0 149935566#1 149935566#2 58561800#1 58561799#0 58561799#1 -943542797#0 -392103887 -40317922#4 -40317922#3 4645392#1 4645392#3 -4645391"/>
    </vehicle>
    <vehicle id="veh51" type="veh_passenger" depart="196.39" departLane="best" departSpeed="max">
        <route edges="-51508352#1 149935566#1 149935566#2 58561800#1 58561799#0 58561799#1 -943542797#0 -392103887 -40317922#4 -40317922#3 -40317922#2 -40317922#1 -27222779#2 -27222779#1 -27222779#0"/>
    </vehicle>
    <vehicle id="veh52" type="veh_passenger" depart="200.24" departLane="best" departSpeed="max">
        <route edges="376401312#0 149935566#1 149935566#2 58561800#1 58561799#0 58561799#1 -943542797#0 -392103887 -40317922#4 -40317922#3 4645392#1 4645392#3 -4645391"/>
    </vehicle>
    <vehicle id="veh53" type="veh_passenger" depart="204.09" departLane="best" departSpeed="max">
        <route edges="376401312#0 149935566#1 149935566#2 58561800#1 58561799#0 58561799#1 -943542797#0 -392103887 -40317922#4 -40317922#3 4645392#1 4645392#3 -4645391"/>
    </vehicle>
    <vehicle id="veh54" type="veh_passenger" depart="207.94" departLane="best" departSpeed="max">
        <route edges="27222779#0 27222779#1 27222779#2 40317927#1 943540703#0 943540703#1 943540703#2 943540702#0 943540702#1 51476080#1 51476080#2 51476080#3 51476080#4 51476080#5 51476080#6 51508352#1"/>
    </vehicle>
    <vehicle id="veh55" type="veh_passenger" depart="211.79" departLane="best" departSpeed="max">
        <route edges="376401312#0 149935566#1 149935566#2 58561800#1 58561799#0 58561799#1 -943542797#0 -392103887 -40317922#4 -40317922#3 -40317922#2 -40317922#1 -27222779#2 -27222779#1 -27222779#0"/>
    </vehicle>
    <vehicle id="veh56" type="veh_passenger" depart="215.64" departLane="best" departSpeed="max">
        <route edges="376401312#0 149935566#1 149935566#2 58561800#1 58561799#0 58561799#1 -943542797#0 -392103887 -40317922#4 -40317922#3 4645392#1 4645392#3 -4645391"/>
    </vehicle>
    <vehicle id="veh57" type="veh_passenger" depart="219.49" departLane="best" departSpeed="max">
        <route edges="-51508352#1 149935566#1 149935566#2 58561800#1 58561799#0 58561799#1 -943542797#0 -392103887 -40317922#4 -40317922#3 -40317922#2 -40317922#1 -27222779#2 -27222779#1 -27222779#0"/>
    </vehicle>
    <vehicle id="veh58" type="veh_passenger" depart="223.34" departLane="best">
        <route edges="51476080#1 51476080#2 51476080#3 51476080#4 51476080#5 51476080#6 149935566#1 149935566#2 58561800#1 58561799#0 58561799#1 -943542797#0 -392103887 -40317922#4 -40317922#3 4645392#1 4645392#3 -4645391"/>
    </vehicle>
    <vehicle id="veh59" type="veh_passenger" depart="227.19" departLane="best" departSpeed="max">
        <route edges="-51508352#1 149935566#1 149935566#2 58561800#1 58561799#0 58561799#1 -943542797#0 -392103887 -40317922#4 -40317922#3 -40317922#2 -40317922#1 -27222779#2 -27222779#1 -27222779#0"/>
    </vehicle>
    <vehicle id="veh60" type="veh_passenger" depart="231.04" departLane="best" departSpeed="max">
        <route edges="27222779#0 27222779#1 27222779#2 40317927#1 943540703#0 943540703#1 943540703#2 943540702#0 943540702#1 362368395#2"/>
    </vehicle>
    <vehicle id="veh61" type="veh_passenger" depart="234.90" departLane="best">
        <route edges="-40317921#1 -943542797#0 -392103887 -40317922#4 -40317922#3 -40317922#2 -40317922#1 40317927#1 943540703#0 943540703#1 943540703#2 943540702#0"/>
    </vehicle>
    <vehicle id="veh62" type="veh_passenger" depart="238.75" departLane="best">
        <route edges="-40317922#1 40317927#1 943540703#0 943540703#1 943540703#2 943540702#0 943540702#1 362368395#2"/>
    </vehicle>
    <vehicle id="veh63" type="veh_passenger" depart="242.60" departLane="best" departSpeed="max">
        <route edges="376401312#0 149935566#1 149935566#2 58561800#1 58561799#0 58561799#1 -943542797#0 -392103887 -40317922#4 -40317922#3 4645392#1 4645392#3 -4645391"/>
    </vehicle>
    <vehicle id="veh64" type="veh_passenger" depart="246.45" departLane="best" departSpeed="max">
        <route edges="376401312#0 149935566#1 149935566#2 58561800#1 58561799#0 58561799#1 -943542797#0 -392103887 -40317922#4 -40317922#3 -40317922#2 -40317922#1 -27222779#2 -27222779#1 -27222779#0"/>
    </vehicle>
    <vehicle id="veh65" type="veh_passenger" depart="250.30" departLane="best" departSpeed="max">
        <route edges="376401312#0 149935566#1 149935566#2 58561800#1 58561799#0 58561799#1 -943542797#0 -392103887 -40317922#4 -40317922#3 4645392#1 4645392#3 -4645391"/>
    </vehicle>
    <vehicle id="veh66" type="veh_passenger" depart="254.15" departLane="best">
        <route edges="134941607#1 40317927#1 943540703#0 943540703#1 943540703#2 943540702#0 943540702#1 51476080#1 51476080#2 51476080#3 51476080#4 51476080#5 51476080#6 51508352#1"/>
    </vehicle>
    <vehicle id="veh67" type="veh_passenger" depart="258.00" departLane="best">
        <route edges="943540702#1 51476080#1 51476080#2 51476080#3 51476080#4 51476080#5 51476080#6 149935566#1 149935566#2 58561800#1 58561799#0 58561799#1 -943542797#0 -392103887 -40317922#4 -40317922#3 4645392#1 4645392#3 -4645391"/>
    </vehicle>
    <vehicle id="veh68" type="veh_passenger" depart="261.85" departLane="best">
        <route edges="58561799#1 -943542797#0 -392103887 -40317922#4 -40317922#3 -40317922#2 -40317922#1 -27222779#2 -27222779#1 -27222779#0"/>
    </vehicle>
    <vehicle id="veh69" type="veh_passenger" depart="265.70" departLane="best">
        <route edges="943540702#1 51476080#1 51476080#2 51476080#3 51476080#4 51476080#5 51476080#6 149935566#1 149935566#2 58561800#1 58561799#0 58561799#1 40317921#1"/>
    </vehicle>
    <vehicle id="veh70" type="veh_passenger" depart="269.55" departLane="best" departSpeed="max">
        <route edges="376401312#0 149935566#1 149935566#2 58561800#1 58561799#0 58561799#1 -943542797#0 -392103887 -40317922#4 -40317922#3 4645392#1 4645392#3 -4645391"/>
    </vehicle>
    <vehicle id="veh71" type="veh_passenger" depart="273.40" departLane="best">
        <route edges="27222779#2 40317927#1 943540703#0 943540703#1 943540703#2 943540702#0 943540702#1 362368395#2"/>
    </vehicle>
    <vehicle id="veh72" type="veh_passenger" depart="277.25" departLane="best" departSpeed="max">
        <route edges="27222779#0 27222779#1 27222779#2 40317927#1 943540703#0 943540703#1 943540703#2 943540702#0 943540702#1 362368395#2"/>
    </vehicle>
    <vehicle id="veh73" type="veh_passenger" depart="281.10" departLane="best">
        <route edges="27222779#1 27222779#2 40317927#1 943540703#0 943540703#1 943540703#2 943540702#0 943540702#1 51476080#1 51476080#2 51476080#3 51476080#4 51476080#5 51476080#6 51508352#1"/>
    </vehicle>
    <vehicle id="veh74" type="veh_passenger" depart="284.95" departLane="best" departSpeed="max">
        <route edges="27222779#0 27222779#1 27222779#2 40317927#1 943540703#0 943540703#1 943540703#2 943540702#0 943540702#1 362368395#2"/>
    </vehicle>
    <vehicle id="veh75" type="veh_passenger" depart="288.81" departLane="best" departSpeed="max">
        <route edges="376401312#0 149935566#1 149935566#2 58561800#1 58561799#0 58561799#1 -943542797#0 -392103887 -40317922#4 -40317922#3 4645392#1 4645392#3 -4645391"/>
    </vehicle>
    <vehicle id="veh76" type="veh_passenger" depart="292.66" departLane="best" departSpeed="max">
        <route edges="376401312#0 149935566#1 149935566#2 58561800#1 58561799#0 58561799#1 -943542797#0 -392103887 -40317922#4 -40317922#3 4645392#1 4645392#3 -4645391"/>
    </vehicle>
    <vehicle id="veh77" type="veh_passenger" depart="296.51" departLane="best" departSpeed="max">
        <route edges="-51508352#1 149935566#1 149935566#2 58561800#1 58561799#0 58561799#1 -943542797#0 -392103887 -40317922#4 -40317922#3 -40317922#2 -40317922#1 -27222779#2"/>
    </vehicle>
    <vehicle id="veh78" type="veh_passenger" depart="300.36" departLane="best">
        <route edges="58561799#1 -943542797#0 -392103887 -40317922#4 -40317922#3 -40317922#2 -40317922#1 40317927#1 943540703#0 943540703#1 943540703#2 943540702#0 943540702#1 362368395#2"/>
    </vehicle>
    <vehicle id="veh79" type="veh_passenger" depart="304.21" departLane="best" departSpeed="max">
        <route edges="27222779#0 27222779#1 27222779#2 40317927#1 943540703#0 943540703#1 943540703#2 943540702#0 943540702#1 362368395#2"/>
    </vehicle>
    <vehicle id="veh80" type="veh_passenger" depart="308.06" departLane="best" departSpeed="max">
        <route edges="27222779#0 27222779#1 27222779#2 40317927#1 943540703#0 943540703#1 943540703#2 943540702#0 943540702#1 51476080#1 51476080#2 51476080#3 51476080#4 51476080#5 51476080#6 51508352#1"/>
    </vehicle>
    <vehicle id="veh81" type="veh_passenger" depart="311.91" departLane="best" departSpeed="max">
        <route edges="376401312#0 149935566#1 149935566#2 58561800#1 58561799#0 58561799#1 -943542797#0 -392103887 -40317922#4 -40317922#3 4645392#1 4645392#3 -4645391"/>
    </vehicle>
    <vehicle id="veh82" type="veh_passenger" depart="315.76" departLane="best" departSpeed="max">
        <route edges="376401312#0 149935566#1 149935566#2 58561800#1 58561799#0 58561799#1 -943542797#0 -392103887 -40317922#4 -40317922#3 4645392#1 4645392#3 -4645391"/>
    </vehicle>
    <vehicle id="veh83" type="veh_passenger" depart="319.61" departLane="best" departSpeed="max">
        <route edges="-51508352#1 149935566#1 149935566#2 58561800#1 58561799#0 58561799#1 -943542797#0 -392103887 -40317922#4 -40317922#3 -40317922#2 -40317922#1 -27222779#2 -27222779#1 -27222779#0"/>
    </vehicle>
    <vehicle id="veh84" type="veh_passenger" depart="323.46" departLane="best" departSpeed="max">
        <route edges="376401312#0 149935566#1 149935566#2 58561800#1 58561799#0 58561799#1 -943542797#0 -392103887 -40317922#4 -40317922#3 -40317922#2 -40317922#1 -27222779#2 -27222779#1 -27222779#0"/>
    </vehicle>
    <vehicle id="veh85" type="veh_passenger" depart="327.31" departLane="best" departSpeed="max">
        <route edges="27222779#0 27222779#1 27222779#2 40317927#1 943540703#0 943540703#1 943540703#2 943540702#0 943540702#1 362368395#2"/>
    </vehicle>
    <vehicle id="veh86" type="veh_passenger" depart="331.16" departLane="best" departSpeed="max">
        <route edges="376401312#0 149935566#1 149935566#2 58561800#1 58561799#0 58561799#1 -943542797#0 -392103887 -40317922#4 -40317922#3 -40317922#2 -40317922#1 -27222779#2 -27222779#1 -27222779#0"/>
    </vehicle>
    <vehicle id="veh87" type="veh_passenger" depart="335.01" departLane="best" departSpeed="max">
        <route edges="27222779#0 27222779#1 27222779#2 40317927#1 943540703#0 943540703#1 943540703#2 943540702#0 943540702#1 51476080#1 51476080#2 51476080#3 51476080#4 51476080#5 51476080#6 51508352#1"/>
    </vehicle>
    <vehicle id="veh88" type="veh_passenger" depart="338.87" departLane="best" departSpeed="max">
        <route edges="27222779#0 27222779#1 27222779#2 40317927#1 943540703#0 943540703#1 943540703#2 943540702#0 943540702#1 51476080#1 51476080#2 51476080#3 51476080#4 51476080#5 51476080#6 51508352#1"/>
    </vehicle>
    <vehicle id="veh90" type="veh_passenger" depart="346.57" departLane="best" departSpeed="max">
        <route edges="376401312#0 149935566#1 149935566#2 58561800#1 58561799#0 58561799#1 -943542797#0 -392103887 -40317922#4 -40317922#3 4645392#1 4645392#3 -4645391"/>
    </vehicle>
    <vehicle id="veh91" type="veh_passenger" depart="350.42" departLane="best" departSpeed="max">
        <route edges="-51508352#1 149935566#1 149935566#2 58561800#1 58561799#0 58561799#1 -943542797#0 -392103887 -40317922#4 -40317922#3 4645392#1 4645392#3 -4645391"/>
    </vehicle>
    <vehicle id="veh92" type="veh_passenger" depart="354.27" departLane="best" departSpeed="max">
        <route edges="-51508352#1 149935566#1 149935566#2 58561800#1 58561799#0 58561799#1 -943542797#0 -392103887 -40317922#4 -40317922#3 4645392#1 4645392#3 -4645391"/>
    </vehicle>
    <vehicle id="veh93" type="veh_passenger" depart="358.12" departLane="best" departSpeed="max">
        <route edges="376401312#0 149935566#1 149935566#2 58561800#1 58561799#0 58561799#1 -943542797#0 -392103887 -40317922#4 -40317922#3 -40317922#2 -40317922#1 -27222779#2 -27222779#1 -27222779#0"/>
    </vehicle>
    <vehicle id="veh94" type="veh_passenger" depart="361.97" departLane="best" departSpeed="max">
        <route edges="27222779#0 27222779#1 27222779#2 40317927#1 943540703#0 943540703#1 943540703#2 943540702#0 943540702#1 362368395#2"/>
    </vehicle>
    <vehicle id="veh95" type="veh_passenger" depart="365.82" departLane="best" departSpeed="max">
        <route edges="27222779#0 27222779#1 27222779#2 40317927#1 943540703#0 943540703#1 943540703#2 943540702#0 943540702#1 51476080#1 51476080#2 51476080#3 51476080#4 51476080#5 51476080#6 51508352#1"/>
    </vehicle>
    <vehicle id="veh96" type="veh_passenger" depart="369.67" departLane="best" departSpeed="max">
        <route edges="27222779#0 27222779#1 27222779#2 40317927#1 943540703#0 943540703#1 943540703#2 943540702#0 943540702#1 362368395#2"/>
    </vehicle>
    <vehicle id="veh97" type="veh_passenger" depart="373.52" departLane="best" departSpeed="max">
        <route edges="27222779#0 27222779#1 27222779#2 40317927#1 943540703#0 943540703#1 943540703#2 943540702#0 943540702#1 362368395#2"/>
    </vehicle>
    <vehicle id="veh98" type="veh_passenger" depart="377.37" departLane="best" departSpeed="max">
        <route edges="-51508352#1 149935566#1 149935566#2 58561800#1 58561799#0 58561799#1 -943542797#0 -392103887 -40317922#4 -40317922#3 4645392#1 4645392#3 -4645391"/>
    </vehicle>
    <vehicle id="veh100" type="veh_passenger" depart="385.07" departLane="best" departSpeed="max">
        <route edges="376401312#0 149935566#1 149935566#2 58561800#1 58561799#0 58561799#1 -943542797#0 -392103887 -40317922#4 -40317922#3 -40317922#2 -40317922#1 -27222779#2 -27222779#1 -27222779#0"/>
    </vehicle>
    <vehicle id="veh101" type="veh_passenger" depart="388.92" departLane="best" departSpeed="max">
        <route edges="27222779#0 27222779#1 27222779#2 40317927#1 943540703#0 943540703#1 943540703#2 943540702#0 943540702#1 362368395#2"/>
    </vehicle>