<?xml version="1.0" encoding="UTF-8"?>

<!-- generated on 2024-09-05 10:05:33.249144 by randomTrips.py v1_20_0+0002-343658e7c64
<configuration>
    <net-file value="osm.net.xml.gz"/>
    <output-trip-file value="osm.passenger.trips.xml"/>
    <route-file value="osm.passenger.rou.xml"/>
    <prefix value="veh"/>
    <trip-attributes value="departLane=&quot;best&quot;"/>
    <fringe-start-attributes value="departSpeed=&quot;max&quot;"/>
    <vehicle-class value="passenger"/>
    <lanes value="True"/>
    <fringe-factor value="50"/>
    <allow-fringe.min-length value="1000.0"/>
    <via-edge-types value="highway.motorway,highway.motorway_link,highway.trunk_link,highway.primary_link,highway.secondary_link,highway.tertiary_link"/>
    <min-distance value="300.0"/>
    <min-distance.fringe value="10.0"/>
    <remove-loops value="True"/>
    <validate value="True"/>
    <insertion-density value="800.0"/>
</configuration>
-->

<!-- generated on 2024-09-05 10:05:33 by Eclipse SUMO duarouter Version 1.20.0
<configuration xmlns:xsi="http://www.w3.org/2001/XMLSchema-instance" xsi:noNamespaceSchemaLocation="http://sumo.dlr.de/xsd/duarouterConfiguration.xsd">

    <input>
        <net-file value="osm.net.xml.gz"/>
        <route-files value="osm.passenger.trips.xml"/>
    </input>

    <output>
        <output-file value="osm.passenger.trips.xml.tmp"/>
        <alternatives-output value="NUL"/>
        <write-trips value="true"/>
    </output>

    <processing>
        <remove-loops value="true"/>
    </processing>

    <time>
        <begin value="0.0"/>
        <end value="3600.0"/>
    </time>

    <report>
        <no-warnings value="true"/>
        <ignore-errors value="true"/>
        <no-step-log value="true"/>
    </report>

</configuration>
-->

<routes xmlns:xsi="http://www.w3.org/2001/XMLSchema-instance" xsi:noNamespaceSchemaLocation="http://sumo.dlr.de/xsd/routes_file.xsd">
    <vType id="veh_passenger" vClass="passenger"/>
    <trip id="veh0" type="veh_passenger" depart="0.00" departLane="best" departSpeed="max" from="376401312#0" to="-27222779#0"/>
    <trip id="veh1" type="veh_passenger" depart="2.41" departLane="best" departSpeed="max" from="-51508352#1" to="-4645391"/>
    <trip id="veh2" type="veh_passenger" depart="4.81" departLane="best" departSpeed="max" from="376401312#0" to="-27222779#0"/>
    <trip id="veh3" type="veh_passenger" depart="7.22" departLane="best" from="149935566#1" to="-27222779#0"/>
    <trip id="veh4" type="veh_passenger" depart="9.63" departLane="best" departSpeed="max" from="-51508352#1" to="-27222779#0"/>
    <trip id="veh5" type="veh_passenger" depart="12.03" departLane="best" departSpeed="max" from="27222779#0" to="362368395#2"/>
    <trip id="veh6" type="veh_passenger" depart="14.44" departLane="best" from="-40317921#1" to="362368395#2"/>
    <trip id="veh7" type="veh_passenger" depart="16.85" departLane="best" departSpeed="max" from="376401312#0" to="-27222779#0"/>
    <trip id="veh8" type="veh_passenger" depart="19.25" departLane="best" departSpeed="max" from="-51508352#1" to="-4645391"/>
    <trip id="veh9" type="veh_passenger" depart="21.66" departLane="best" departSpeed="max" from="-51508352#1" to="-4645391"/>
    <trip id="veh10" type="veh_passenger" depart="24.07" departLane="best" departSpeed="max" from="-51508352#1" to="-4645391"/>
    <trip id="veh12" type="veh_passenger" depart="28.88" departLane="best" departSpeed="max" from="27222779#0" to="362368395#2"/>
    <trip id="veh13" type="veh_passenger" depart="31.29" departLane="best" departSpeed="max" from="-51508352#1" to="-27222779#0"/>
    <trip id="veh14" type="veh_passenger" depart="33.69" departLane="best" departSpeed="max" from="-51508352#1" to="-4645391"/>
    <trip id="veh15" type="veh_passenger" depart="36.10" departLane="best" departSpeed="max" from="27222779#0" to="51508352#1"/>
    <trip id="veh16" type="veh_passenger" depart="38.51" departLane="best" from="-943542797#0" to="362368395#2"/>
    <trip id="veh17" type="veh_passenger" depart="40.91" departLane="best" departSpeed="max" from="-51508352#1" to="-27222779#0"/>
    <trip id="veh18" type="veh_passenger" depart="43.32" departLane="best" from="-943542797#0" to="362368395#2"/>
    <trip id="veh19" type="veh_passenger" depart="45.73" departLane="best" departSpeed="max" from="27222779#0" to="58561799#0"/>
    <trip id="veh20" type="veh_passenger" depart="48.13" departLane="best" departSpeed="max" from="27222779#0" to="40317921#1"/>
    <trip id="veh21" type="veh_passenger" depart="50.54" departLane="best" departSpeed="max" from="-51508352#1" to="-27222779#0"/>
    <trip id="veh22" type="veh_passenger" depart="52.95" departLane="best" departSpeed="max" from="376401312#0" to="-27222779#0"/>
    <trip id="veh23" type="veh_passenger" depart="55.35" departLane="best" departSpeed="max" from="27222779#0" to="362368395#2"/>
    <trip id="veh24" type="veh_passenger" depart="57.76" departLane="best" departSpeed="max" from="27222779#0" to="362368395#2"/>
    <trip id="veh25" type="veh_passenger" depart="60.17" departLane="best" departSpeed="max" from="-51508352#1" to="-4645391"/>
    <trip id="veh26" type="veh_passenger" depart="62.57" departLane="best" from="-943542797#0" to="362368395#2"/>
    <trip id="veh27" type="veh_passenger" depart="64.98" departLane="best" departSpeed="max" from="27222779#0" to="362368395#2"/>
    <trip id="veh28" type="veh_passenger" depart="67.39" departLane="best" departSpeed="max" from="-51508352#1" to="-4645391"/>
    <trip id="veh30" type="veh_passenger" depart="72.20" departLane="best" departSpeed="max" from="-51508352#1" to="-4645391"/>
    <trip id="veh31" type="veh_passenger" depart="74.61" departLane="best" from="-392103887" to="-27222779#0"/>
    <trip id="veh32" type="veh_passenger" depart="77.01" departLane="best" departSpeed="max" from="-51508352#1" to="-27222779#0"/>
    <trip id="veh33" type="veh_passenger" depart="79.42" departLane="best" from="58561799#0" to="362368395#2"/>
    <trip id="veh34" type="veh_passenger" depart="81.83" departLane="best" departSpeed="max" from="27222779#0" to="51476080#5"/>
    <trip id="veh35" type="veh_passenger" depart="84.23" departLane="best" departSpeed="max" from="27222779#0" to="362368395#2"/>
    <trip id="veh36" type="veh_passenger" depart="86.64" departLane="best" departSpeed="max" from="27222779#0" to="51508352#1"/>
    <trip id="veh37" type="veh_passenger" depart="89.05" departLane="best" departSpeed="max" from="376401312#0" to="-27222779#2"/>
    <trip id="veh38" type="veh_passenger" depart="91.46" departLane="best" departSpeed="max" from="27222779#0" to="362368395#2"/>
    <trip id="veh39" type="veh_passenger" depart="93.86" departLane="best" departSpeed="max" from="27222779#0" to="362368395#2"/>
    <trip id="veh40" type="veh_passenger" depart="96.27" departLane="best" departSpeed="max" from="-51508352#1" to="-4645391"/>
    <trip id="veh41" type="veh_passenger" depart="98.68" departLane="best" departSpeed="max" from="27222779#0" to="51508352#1"/>
    <trip id="veh42" type="veh_passenger" depart="101.08" departLane="best" departSpeed="max" from="27222779#0" to="362368395#2"/>
    <trip id="veh43" type="veh_passenger" depart="103.49" departLane="best" departSpeed="max" from="-51508352#1" to="-27222779#0"/>
    <trip id="veh44" type="veh_passenger" depart="105.90" departLane="best" departSpeed="max" from="27222779#0" to="362368395#2"/>
    <trip id="veh45" type="veh_passenger" depart="108.30" departLane="best" departSpeed="max" from="27222779#0" to="362368395#2"/>
    <trip id="veh46" type="veh_passenger" depart="110.71" departLane="best" departSpeed="max" from="27222779#0" to="51508352#1"/>
    <trip id="veh47" type="veh_passenger" depart="113.12" departLane="best" departSpeed="max" from="376401312#0" to="-4645391"/>
    <trip id="veh48" type="veh_passenger" depart="115.52" departLane="best" departSpeed="max" from="-51508352#1" to="-4645391"/>
    <trip id="veh49" type="veh_passenger" depart="117.93" departLane="best" departSpeed="max" from="376401312#0" to="-27222779#0"/>
    <trip id="veh50" type="veh_passenger" depart="120.34" departLane="best" departSpeed="max" from="376401312#0" to="-4645391"/>
    <trip id="veh51" type="veh_passenger" depart="122.74" departLane="best" departSpeed="max" from="-51508352#1" to="-27222779#0"/>
    <trip id="veh52" type="veh_passenger" depart="125.15" departLane="best" departSpeed="max" from="376401312#0" to="-4645391"/>
    <trip id="veh53" type="veh_passenger" depart="127.56" departLane="best" departSpeed="max" from="376401312#0" to="-4645391"/>
    <trip id="veh54" type="veh_passenger" depart="129.96" departLane="best" departSpeed="max" from="27222779#0" to="51508352#1"/>
    <trip id="veh55" type="veh_passenger" depart="132.37" departLane="best" departSpeed="max" from="376401312#0" to="-27222779#0"/>
    <trip id="veh56" type="veh_passenger" depart="134.78" departLane="best" departSpeed="max" from="376401312#0" to="-4645391"/>
    <trip id="veh57" type="veh_passenger" depart="137.18" departLane="best" departSpeed="max" from="-51508352#1" to="-27222779#0"/>
    <trip id="veh58" type="veh_passenger" depart="139.59" departLane="best" from="51476080#1" to="-4645391"/>
    <trip id="veh59" type="veh_passenger" depart="142.00" departLane="best" departSpeed="max" from="-51508352#1" to="-27222779#0"/>
    <trip id="veh60" type="veh_passenger" depart="144.40" departLane="best" departSpeed="max" from="27222779#0" to="362368395#2"/>
    <trip id="veh61" type="veh_passenger" depart="146.81" departLane="best" from="-40317921#1" to="943540702#0"/>
    <trip id="veh62" type="veh_passenger" depart="149.22" departLane="best" from="-40317922#1" to="362368395#2"/>
    <trip id="veh63" type="veh_passenger" depart="151.62" departLane="best" departSpeed="max" from="376401312#0" to="-4645391"/>
    <trip id="veh64" type="veh_passenger" depart="154.03" departLane="best" departSpeed="max" from="376401312#0" to="-27222779#0"/>
    <trip id="veh65" type="veh_passenger" depart="156.44" departLane="best" departSpeed="max" from="376401312#0" to="-4645391"/>
    <trip id="veh66" type="veh_passenger" depart="158.84" departLane="best" from="134941607#1" to="51508352#1"/>
    <trip id="veh67" type="veh_passenger" depart="161.25" departLane="best" from="943540702#1" to="-4645391"/>
    <trip id="veh68" type="veh_passenger" depart="163.66" departLane="best" from="58561799#1" to="-27222779#0"/>
    <trip id="veh69" type="veh_passenger" depart="166.06" departLane="best" from="943540702#1" to="40317921#1"/>
    <trip id="veh70" type="veh_passenger" depart="168.47" departLane="best" departSpeed="max" from="376401312#0" to="-4645391"/>
    <trip id="veh71" type="veh_passenger" depart="170.88" departLane="best" from="27222779#2" to="362368395#2"/>
    <trip id="veh72" type="veh_passenger" depart="173.28" departLane="best" departSpeed="max" from="27222779#0" to="362368395#2"/>
    <trip id="veh73" type="veh_passenger" depart="175.69" departLane="best" from="27222779#1" to="51508352#1"/>
    <trip id="veh74" type="veh_passenger" depart="178.10" departLane="best" departSpeed="max" from="27222779#0" to="362368395#2"/>
    <trip id="veh75" type="veh_passenger" depart="180.50" departLane="best" departSpeed="max" from="376401312#0" to="-4645391"/>
    <trip id="veh76" type="veh_passenger" depart="182.91" departLane="best" departSpeed="max" from="376401312#0" to="-4645391"/>
    <trip id="veh77" type="veh_passenger" depart="185.32" departLane="best" departSpeed="max" from="-51508352#1" to="-27222779#2"/>
    <trip id="veh78" type="veh_passenger" depart="187.72" departLane="best" from="58561799#1" to="362368395#2"/>
    <trip id="veh79" type="veh_passenger" depart="190.13" departLane="best" departSpeed="max" from="27222779#0" to="362368395#2"/>
    <trip id="veh80" type="veh_passenger" depart="192.54" departLane="best" departSpeed="max" from="27222779#0" to="51508352#1"/>
    <trip id="veh81" type="veh_passenger" depart="194.94" departLane="best" departSpeed="max" from="376401312#0" to="-4645391"/>
    <trip id="veh82" type="veh_passenger" depart="197.35" departLane="best" departSpeed="max" from="376401312#0" to="-4645391"/>
    <trip id="veh83" type="veh_passenger" depart="199.76" departLane="best" departSpeed="max" from="-51508352#1" to="-27222779#0"/>
    <trip id="veh84" type="veh_passenger" depart="202.16" departLane="best" departSpeed="max" from="376401312#0" to="-27222779#0"/>
    <trip id="veh85" type="veh_passenger" depart="204.57" departLane="best" departSpeed="max" from="27222779#0" to="362368395#2"/>
    <trip id="veh86" type="veh_passenger" depart="206.98" departLane="best" departSpeed="max" from="376401312#0" to="-27222779#0"/>
    <trip id="veh87" type="veh_passenger" depart="209.38" departLane="best" departSpeed="max" from="27222779#0" to="51508352#1"/>
    <trip id="veh88" type="veh_passenger" depart="211.79" departLane="best" departSpeed="max" from="27222779#0" to="51508352#1"/>
    <trip id="veh90" type="veh_passenger" depart="216.60" departLane="best" departSpeed="max" from="376401312#0" to="-4645391"/>
    <trip id="veh91" type="veh_passenger" depart="219.01" departLane="best" departSpeed="max" from="-51508352#1" to="-4645391"/>
    <trip id="veh92" type="veh_passenger" depart="221.42" departLane="best" departSpeed="max" from="-51508352#1" to="-4645391"/>
    <trip id="veh93" type="veh_passenger" depart="223.82" departLane="best" departSpeed="max" from="376401312#0" to="-27222779#0"/>
    <trip id="veh94" type="veh_passenger" depart="226.23" departLane="best" departSpeed="max" from="27222779#0" to="362368395#2"/>
    <trip id="veh95" type="veh_passenger" depart="228.64" departLane="best" departSpeed="max" from="27222779#0" to="51508352#1"/>
    <trip id="veh96" type="veh_passenger" depart="231.04" departLane="best" departSpeed="max" from="27222779#0" to="362368395#2"/>
    <trip id="veh97" type="veh_passenger" depart="233.45" departLane="best" departSpeed="max" from="27222779#0" to="362368395#2"/>
    <trip id="veh98" type="veh_passenger" depart="235.86" departLane="best" departSpeed="max" from="-51508352#1" to="-4645391"/>
    <trip id="veh100" type="veh_passenger" depart="240.67" departLane="best" departSpeed="max" from="376401312#0" to="-27222779#0"/>
    <trip id="veh101" type="veh_passenger" depart="243.08" departLane="best" departSpeed="max" from="27222779#0" to="362368395#2"/>
    <trip id="veh102" type="veh_passenger" depart="245.48" departLane="best" from="-40317922#1" to="362368395#2"/>
    <trip id="veh103" type="veh_passenger" depart="247.89" departLane="best" departSpeed="max" from="-51508352#1" to="-4645391"/>
    <trip id="veh105" type="veh_passenger" depart="252.70" departLane="best" departSpeed="max" from="-51508352#1" to="-27222779#0"/>
    <trip id="veh106" type="veh_passenger" depart="255.11" departLane="best" from="-40317921#1" to="362368395#2"/>
    <trip id="veh107" type="veh_passenger" depart="257.52" departLane="best" from="-40317921#1" to="-27222779#0"/>
    <trip id="veh108" type="veh_passenger" depart="259.93" departLane="best" departSpeed="max" from="376401312#0" to="4645392#3"/>
    <trip id="veh109" type="veh_passenger" depart="262.33" departLane="best" departSpeed="max" from="376401312#0" to="-27222779#0"/>
    <trip id="veh110" type="veh_passenger" depart="264.74" departLane="best" departSpeed="max" from="-51508352#1" to="-27222779#0"/>
    <trip id="veh111" type="veh_passenger" depart="267.15" departLane="best" departSpeed="max" from="376401312#0" to="-27222779#0"/>
    <trip id="veh112" type="veh_passenger" depart="269.55" departLane="best" departSpeed="max" from="376401312#0" to="-4645391"/>
    <trip id="veh113" type="veh_passenger" depart="271.96" departLane="best" departSpeed="max" from="27222779#0" to="51476080#5"/>
    <trip id="veh114" type="veh_passenger" depart="274.37" departLane="best" departSpeed="max" from="27222779#0" to="362368395#2"/>
    <trip id="veh115" type="veh_passenger" depart="276.77" departLane="best" departSpeed="max" from="27222779#0" to="362368395#2"/>
    <trip id="veh116" type="veh_passenger" depart="279.18" departLane="best" departSpeed="max" from="376401312#0" to="-27222779#0"/>
    <trip id="veh117" type="veh_passenger" depart="281.59" departLane="best" departSpeed="max" from="27222779#0" to="362368395#2"/>
    <trip id="veh118" type="veh_passenger" depart="283.99" departLane="best" departSpeed="max" from="376401312#0" to="-40317922#1"/>
    <trip id="veh119" type="veh_passenger" depart="286.40" departLane="best" departSpeed="max" from="376401312#0" to="-4645391"/>
    <trip id="veh120" type="veh_passenger" depart="288.81" departLane="best" departSpeed="max" from="27222779#0" to="40317922#4"/>
    <trip id="veh121" type="veh_passenger" depart="291.21" departLane="best" departSpeed="max" from="27222779#0" to="51508352#1"/>
    <trip id="veh122" type="veh_passenger" depart="293.62" departLane="best" departSpeed="max" from="-51508352#1" to="-4645391"/>
    <trip id="veh123" type="veh_passenger" depart="296.03" departLane="best" departSpeed="max" from="376401312#0" to="-4645391"/>
    <trip id="veh124" type="veh_passenger" depart="298.43" departLane="best" departSpeed="max" from="27222779#0" to="362368395#2"/>
    <trip id="veh125" type="veh_passenger" depart="300.84" departLane="best" departSpeed="max" from="27222779#0" to="362368395#2"/>
    <trip id="veh126" type="veh_passenger" depart="303.25" departLane="best" departSpeed="max" from="376401312#0" to="-4645391"/>
    <trip id="veh127" type="veh_passenger" depart="305.65" departLane="best" departSpeed="max" from="376401312#0" to="-4645391"/>
    <trip id="veh128" type="veh_passenger" depart="308.06" departLane="best" departSpeed="max" from="-51508352#1" to="-27222779#0"/>
    <trip id="veh129" type="veh_passenger" depart="310.47" departLane="best" departSpeed="max" from="-51508352#1" to="-27222779#0"/>
    <trip id="veh130" type="veh_passenger" depart="312.87" departLane="best" departSpeed="max" from="-51508352#1" to="-4645391"/>
    <trip id="veh131" type="veh_passenger" depart="315.28" departLane="best" departSpeed="max" from="27222779#0" to="362368395#2"/>
    <trip id="veh132" type="veh_passenger" depart="317.69" departLane="best" departSpeed="max" from="-51508352#1" to="-27222779#0"/>
    <trip id="veh133" type="veh_passenger" depart="320.09" departLane="best" departSpeed="max" from="-51508352#1" to="-4645391"/>
    <trip id="veh134" type="veh_passenger" depart="322.50" departLane="best" departSpeed="max" from="-51508352#1" to="-27222779#0"/>
    <trip id="veh135" type="veh_passenger" depart="324.91" departLane="best" departSpeed="max" from="376401312#0" to="-27222779#0"/>
    <trip id="veh136" type="veh_passenger" depart="327.31" departLane="best" from="-40317922#1" to="362368395#2"/>
    <trip id="veh137" type="veh_passenger" depart="329.72" departLane="best" from="-40317922#2" to="362368395#2"/>
    <trip id="veh138" type="veh_passenger" depart="332.13" departLane="best" departSpeed="max" from="27222779#0" to="362368395#2"/>
    <trip id="veh139" type="veh_passenger" depart="334.53" departLane="best" departSpeed="max" from="-51508352#1" to="-27222779#0"/>
    <trip id="veh140" type="veh_passenger" depart="336.94" departLane="best" from="58561799#1" to="362368395#2"/>
    <trip id="veh141" type="veh_passenger" depart="339.35" departLane="best" from="51476080#3" to="-27222779#0"/>
    <trip id="veh142" type="veh_passenger" depart="341.75" departLane="best" from="-943542797#0" to="-27222779#0"/>
    <trip id="veh143" type="veh_passenger" depart="344.16" departLane="best" departSpeed="max" from="376401312#0" to="-4645391"/>
    <trip id="veh144" type="veh_passenger" depart="346.57" departLane="best" departSpeed="max" from="27222779#0" to="362368395#2"/>
    <trip id="veh145" type="veh_passenger" depart="348.97" departLane="best" departSpeed="max" from="27222779#0" to="51508352#1"/>
    <trip id="veh146" type="veh_passenger" depart="351.38" departLane="best" departSpeed="max" from="-51508352#1" to="-4645391"/>
    <trip id="veh147" type="veh_passenger" depart="353.79" departLane="best" departSpeed="max" from="376401312#0" to="-27222779#0"/>
    <trip id="veh148" type="veh_passenger" depart="356.19" departLane="best" departSpeed="max" from="-51508352#1" to="-27222779#0"/>
    <trip id="veh149" type="veh_passenger" depart="358.60" departLane="best" from="27222779#1" to="362368395#2"/>
    <trip id="veh150" type="veh_passenger" depart="361.01" departLane="best" departSpeed="max" from="27222779#0" to="362368395#2"/>
    <trip id="veh151" type="veh_passenger" depart="363.41" departLane="best" departSpeed="max" from="376401312#0" to="-27222779#0"/>
    <trip id="veh152" type="veh_passenger" depart="365.82" departLane="best" departSpeed="max" from="-51508352#1" to="-4645391"/>
    <trip id="veh153" type="veh_passenger" depart="368.23" departLane="best" departSpeed="max" from="-51508352#1" to="-27222779#0"/>
    <trip id="veh154" type="veh_passenger" depart="370.63" departLane="best" from="58561799#1" to="362368395#2"/>
    <trip id="veh155" type="veh_passenger" depart="373.04" departLane="best" from="-40317922#4" to="362368395#2"/>
    <trip id="veh156" type="veh_passenger" depart="375.45" departLane="best" departSpeed="max" from="376401312#0" to="-4645391"/>
    <trip id="veh157" type="veh_passenger" depart="377.85" departLane="best" departSpeed="max" from="27222779#0" to="362368395#2"/>
    <trip id="veh158" type="veh_passenger" depart="380.26" departLane="best" departSpeed="max" from="27222779#0" to="362368395#2"/>
    <trip id="veh159" type="veh_passenger" depart="382.67" departLane="best" from="149935566#2" to="-4645391"/>
    <trip id="veh161" type="veh_passenger" depart="387.48" departLane="best" departSpeed="max" from="27222779#0" to="362368395#2"/>
    <trip id="veh162" type="veh_passenger" depart="389.89" departLane="best" departSpeed="max" from="376401312#0" to="-4645391"/>
    <trip id="veh163" type="veh_passenger" depart="392.29" departLane="best" departSpeed="max" from="27222779#0" to="51508352#1"/>
    <trip id="veh164" type="veh_passenger" depart="394.70" departLane="best" departSpeed="max" from="27222779#0" to="362368395#2"/>
    <trip id="veh165" type="veh_passenger" depart="397.11" departLane="best" from="344664988#0" to="-4645391"/>
    <trip id="veh166" type="veh_passenger" depart="399.51" departLane="best" departSpeed="max" from="27222779#0" to="51508352#1"/>
    <trip id="veh167" type="veh_passenger" depart="401.92" departLane="best" departSpeed="max" from="27222779#0" to="51508352#1"/>
    <trip id="veh168" type="veh_passenger" depart="404.33" departLane="best" departSpeed="max" from="-51508352#1" to="-4645391"/>
    <trip id="veh169" type="veh_passenger" depart="406.73" departLane="best" departSpeed="max" from="27222779#0" to="943542797#0"/>
    <trip id="veh170" type="veh_passenger" depart="409.14" departLane="best" departSpeed="max" from="27222779#0" to="362368395#2"/>
    <trip id="veh171" type="veh_passenger" depart="411.55" departLane="best" departSpeed="max" from="376401312#0" to="-27222779#0"/>
    <trip id="veh172" type="veh_passenger" depart="413.95" departLane="best" from="-40317922#3" to="362368395#2"/>
    <trip id="veh173" type="veh_passenger" depart="416.36" departLane="best" departSpeed="max" from="27222779#0" to="51508352#1"/>
    <trip id="veh174" type="veh_passenger" depart="418.77" departLane="best" from="-40317922#2" to="362368395#2"/>
    <trip id="veh175" type="veh_passenger" depart="421.17" departLane="best" departSpeed="max" from="27222779#0" to="362368395#2"/>
    <trip id="veh176" type="veh_passenger" depart="423.58" departLane="best" departSpeed="max" from="376401312#0" to="-27222779#2"/>
    <trip id="veh177" type="veh_passenger" depart="425.99" departLane="best" departSpeed="max" from="376401312#0" to="-27222779#0"/>
    <trip id="veh178" type="veh_passenger" depart="428.39" departLane="best" departSpeed="max" from="27222779#0" to="58561800#1"/>
    <trip id="veh179" type="veh_passenger" depart="430.80" departLane="best" from="-40317922#2" to="362368395#2"/>
    <trip id="veh180" type="veh_passenger" depart="433.21" departLane="best" departSpeed="max" from="27222779#0" to="51508352#1"/>
    <trip id="veh181" type="veh_passenger" depart="435.62" departLane="best" departSpeed="max" from="-51508352#1" to="-27222779#0"/>
    <trip id="veh182" type="veh_passenger" depart="438.02" departLane="best" from="-40317922#2" to="362368395#2"/>
    <trip id="veh183" type="veh_passenger" depart="440.43" departLane="best" departSpeed="max" from="-51508352#1" to="-4645391"/>
    <trip id="veh184" type="veh_passenger" depart="442.84" departLane="best" from="27222779#2" to="51508352#1"/>
    <trip id="veh185" type="veh_passenger" depart="445.24" departLane="best" departSpeed="max" from="27222779#0" to="362368395#2"/>
    <trip id="veh186" type="veh_passenger" depart="447.65" departLane="best" departSpeed="max" from="27222779#0" to="51508352#1"/>
    <trip id="veh187" type="veh_passenger" depart="450.06" departLane="best" departSpeed="max" from="376401312#0" to="-4645391"/>
    <trip id="veh188" type="veh_passenger" depart="452.46" departLane="best" departSpeed="max" from="27222779#0" to="362368395#2"/>
    <trip id="veh189" type="veh_passenger" depart="454.87" departLane="best" departSpeed="max" from="376401312#0" to="-27222779#0"/>
    <trip id="veh190" type="veh_passenger" depart="457.28" departLane="best" departSpeed="max" from="-51508352#1" to="-27222779#0"/>
    <trip id="veh191" type="veh_passenger" depart="459.68" departLane="best" departSpeed="max" from="27222779#0" to="51508352#1"/>
    <trip id="veh192" type="veh_passenger" depart="462.09" departLane="best" departSpeed="max" from="376401312#0" to="-4645391"/>
    <trip id="veh193" type="veh_passenger" depart="464.50" departLane="best" from="149935566#1" to="-27222779#0"/>
    <trip id="veh194" type="veh_passenger" depart="466.90" departLane="best" departSpeed="max" from="27222779#0" to="51508352#1"/>
    <trip id="veh195" type="veh_passenger" depart="469.31" departLane="best" departSpeed="max" from="27222779#0" to="362368395#2"/>
    <trip id="veh196" type="veh_passenger" depart="471.72" departLane="best" departSpeed="max" from="-51508352#1" to="-4645391"/>
    <trip id="veh197" type="veh_passenger" depart="474.12" departLane="best" departSpeed="max" from="27222779#0" to="51508352#1"/>
    <trip id="veh198" type="veh_passenger" depart="476.53" departLane="best" departSpeed="max" from="-51508352#1" to="-27222779#0"/>
    <trip id="veh199" type="veh_passenger" depart="478.94" departLane="best" departSpeed="max" from="-51508352#1" to="-27222779#2"/>
    <trip id="veh200" type="veh_passenger" depart="481.34" departLane="best" from="58561799#1" to="362368395#2"/>
    <trip id="veh201" type="veh_passenger" depart="483.75" departLane="best" departSpeed="max" from="376401312#0" to="-27222779#0"/>
    <trip id="veh202" type="veh_passenger" depart="486.16" departLane="best" from="58561800#1" to="-27222779#0"/>
    <trip id="veh203" type="veh_passenger" depart="488.56" departLane="best" departSpeed="max" from="27222779#0" to="362368395#2"/>
    <trip id="veh204" type="veh_passenger" depart="490.97" departLane="best" departSpeed="max" from="27222779#0" to="149935566#2"/>
    <trip id="veh205" type="veh_passenger" depart="493.38" departLane="best" departSpeed="max" from="-51508352#1" to="-27222779#0"/>
    <trip id="veh206" type="veh_passenger" depart="495.78" departLane="best" departSpeed="max" from="376401312#0" to="-4645391"/>
    <trip id="veh207" type="veh_passenger" depart="498.19" departLane="best" from="51476080#6" to="4645392#1"/>
    <trip id="veh208" type="veh_passenger" depart="500.60" departLane="best" departSpeed="max" from="-51508352#1" to="-4645391"/>
    <trip id="veh209" type="veh_passenger" depart="503.00" departLane="best" from="27222779#1" to="51508352#1"/>
    <trip id="veh210" type="veh_passenger" depart="505.41" departLane="best" departSpeed="max" from="-51508352#1" to="-27222779#0"/>
    <trip id="veh211" type="veh_passenger" depart="507.82" departLane="best" departSpeed="max" from="376401312#0" to="-27222779#0"/>
    <trip id="veh212" type="veh_passenger" depart="510.22" departLane="best" departSpeed="max" from="-51508352#1" to="-4645391"/>
    <trip id="veh213" type="veh_passenger" depart="512.63" departLane="best" departSpeed="max" from="-51508352#1" to="-27222779#0"/>
    <trip id="veh214" type="veh_passenger" depart="515.04" departLane="best" from="58561799#1" to="-27222779#0"/>
    <trip id="veh215" type="veh_passenger" depart="517.44" departLane="best" departSpeed="max" from="27222779#0" to="362368395#2"/>
    <trip id="veh216" type="veh_passenger" depart="519.85" departLane="best" departSpeed="max" from="27222779#0" to="149935566#2"/>
    <trip id="veh217" type="veh_passenger" depart="522.26" departLane="best" from="51476080#5" to="-4645391"/>
    <trip id="veh218" type="veh_passenger" depart="524.66" departLane="best" departSpeed="max" from="27222779#0" to="362368395#2"/>
    <trip id="veh219" type="veh_passenger" depart="527.07" departLane="best" departSpeed="max" from="376401312#0" to="-4645391"/>
    <trip id="veh220" type="veh_passenger" depart="529.48" departLane="best" departSpeed="max" from="27222779#0" to="362368395#2"/>
    <trip id="veh221" type="veh_passenger" depart="531.88" departLane="best" from="51476080#6" to="-27222779#0"/>
    <trip id="veh222" type="veh_passenger" depart="534.29" departLane="best" departSpeed="max" from="376401312#0" to="-27222779#0"/>
    <trip id="veh223" type="veh_passenger" depart="536.70" departLane="best" departSpeed="max" from="27222779#0" to="362368395#2"/>
    <trip id="veh225" type="veh_passenger" depart="541.51" departLane="best" departSpeed="max" from="376401312#0" to="-4645391"/>