<?xml version="1.0" encoding="UTF-8"?>

<!-- generated on 2024-09-04 10:43:57.604960 by randomTrips.py v1_20_0+0002-343658e7c64
<configuration>
    <net-file value="osm.net.xml.gz"/>
    <output-trip-file value="osm.passenger.trips.xml"/>
    <route-file value="osm.passenger.rou.xml"/>
    <prefix value="veh"/>
    <trip-attributes value="departLane=&quot;best&quot;"/>
    <fringe-start-attributes value="departSpeed=&quot;max&quot;"/>
    <vehicle-class value="passenger"/>
    <lanes value="True"/>
    <fringe-factor value="50"/>
    <allow-fringe.min-length value="1000.0"/>
    <via-edge-types value="highway.motorway,highway.motorway_link,highway.trunk_link,highway.primary_link,highway.secondary_link,highway.tertiary_link"/>
    <min-distance value="300.0"/>
    <min-distance.fringe value="10.0"/>
    <remove-loops value="True"/>
    <validate value="True"/>
    <insertion-density value="1100.0"/>
</configuration>
-->

<!-- generated on 2024-09-04 10:43:57 by Eclipse SUMO duarouter Version 1.20.0
<configuration xmlns:xsi="http://www.w3.org/2001/XMLSchema-instance" xsi:noNamespaceSchemaLocation="http://sumo.dlr.de/xsd/duarouterConfiguration.xsd">

    <input>
        <net-file value="osm.net.xml.gz"/>
        <route-files value="osm.passenger.trips.xml"/>
    </input>

    <output>
        <output-file value="osm.passenger.trips.xml.tmp"/>
        <alternatives-output value="NUL"/>
        <write-trips value="true"/>
    </output>

    <processing>
        <remove-loops value="true"/>
    </processing>

    <time>
        <begin value="0.0"/>
        <end value="3600.0"/>
    </time>

    <report>
        <no-warnings value="true"/>
        <ignore-errors value="true"/>
        <no-step-log value="true"/>
    </report>

</configuration>
-->

<routes xmlns:xsi="http://www.w3.org/2001/XMLSchema-instance" xsi:noNamespaceSchemaLocation="http://sumo.dlr.de/xsd/routes_file.xsd">
    <vType id="veh_passenger" vClass="passenger"/>
    <trip id="veh1" type="veh_passenger" depart="1.37" departLane="best" departSpeed="max" from="-51508352#2" to="362368395#2"/>
    <trip id="veh3" type="veh_passenger" depart="4.12" departLane="best" departSpeed="max" from="-51508352#2" to="362368395#2"/>
    <trip id="veh4" type="veh_passenger" depart="5.49" departLane="best" departSpeed="max" from="376401312#0" to="-27222779#0"/>
    <trip id="veh5" type="veh_passenger" depart="6.86" departLane="best" departSpeed="max" from="376401312#0" to="4645391#0"/>
    <trip id="veh6" type="veh_passenger" depart="8.24" departLane="best" departSpeed="max" from="27222779#0" to="-4645391#0"/>
    <trip id="veh7" type="veh_passenger" depart="9.61" departLane="best" departSpeed="max" from="-51508352#2" to="-27222779#0"/>
    <trip id="veh8" type="veh_passenger" depart="10.98" departLane="best" departSpeed="max" from="376401312#0" to="4645391#2"/>
    <trip id="veh9" type="veh_passenger" depart="12.35" departLane="best" departSpeed="max" from="27222779#0" to="362368395#2"/>
    <trip id="veh10" type="veh_passenger" depart="13.73" departLane="best" departSpeed="max" from="376401312#0" to="-27222779#0"/>
    <trip id="veh11" type="veh_passenger" depart="15.10" departLane="best" departSpeed="max" from="-51508352#2" to="-4645391#0"/>
    <trip id="veh13" type="veh_passenger" depart="17.85" departLane="best" departSpeed="max" from="27222779#0" to="-4645391#0"/>
    <trip id="veh15" type="veh_passenger" depart="20.59" departLane="best" departSpeed="max" from="-51508352#2" to="4645391#2"/>
    <trip id="veh16" type="veh_passenger" depart="21.96" departLane="best" departSpeed="max" from="376401312#0" to="4645391#2"/>
    <trip id="veh17" type="veh_passenger" depart="23.34" departLane="best" departSpeed="max" from="-51508352#2" to="-27222779#0"/>
    <trip id="veh21" type="veh_passenger" depart="28.83" departLane="best" departSpeed="max" from="27222779#0" to="-4645391#0"/>
    <trip id="veh22" type="veh_passenger" depart="30.20" departLane="best" from="-943542797#0" to="362368395#2"/>
    <trip id="veh23" type="veh_passenger" depart="31.57" departLane="best" departSpeed="max" from="-51508352#2" to="-27222779#0"/>
    <trip id="veh24" type="veh_passenger" depart="32.95" departLane="best" departSpeed="max" from="-51508352#2" to="362368395#2"/>
    <trip id="veh25" type="veh_passenger" depart="34.32" departLane="best" from="-943542797#0" to="362368395#2"/>
    <trip id="veh26" type="veh_passenger" depart="35.69" departLane="best" from="943540702#0" to="51508352#2"/>
    <trip id="veh28" type="veh_passenger" depart="38.44" departLane="best" from="134941607#1" to="362368395#2"/>
    <trip id="veh29" type="veh_passenger" depart="39.81" departLane="best" departSpeed="max" from="-51508352#2" to="-27222779#2"/>
    <trip id="veh30" type="veh_passenger" depart="41.18" departLane="best" departSpeed="max" from="27222779#0" to="51508352#2"/>
    <trip id="veh31" type="veh_passenger" depart="42.55" departLane="best" departSpeed="max" from="376401312#0" to="-4645391#1"/>
    <trip id="veh33" type="veh_passenger" depart="45.30" departLane="best" departSpeed="max" from="27222779#0" to="362368395#2"/>
    <trip id="veh34" type="veh_passenger" depart="46.67" departLane="best" from="27222779#1" to="134929400#1"/>
    <trip id="veh35" type="veh_passenger" depart="48.05" departLane="best" from="-40317922#1" to="51508352#2"/>
    <trip id="veh36" type="veh_passenger" depart="49.42" departLane="best" departSpeed="max" from="-51508352#2" to="362368395#2"/>
    <trip id="veh37" type="veh_passenger" depart="50.79" departLane="best" departSpeed="max" from="-51508352#2" to="4645391#2"/>
    <trip id="veh38" type="veh_passenger" depart="52.16" departLane="best" departSpeed="max" from="27222779#0" to="362368395#2"/>
    <trip id="veh39" type="veh_passenger" depart="53.54" departLane="best" from="134941607#1" to="51508352#2"/>
    <trip id="veh40" type="veh_passenger" depart="54.91" departLane="best" departSpeed="max" from="27222779#0" to="-4645391#0"/>
    <trip id="veh41" type="veh_passenger" depart="56.28" departLane="best" from="-943542797#0" to="362368395#2"/>
    <trip id="veh42" type="veh_passenger" depart="57.65" departLane="best" departSpeed="max" from="27222779#0" to="362368395#2"/>
    <trip id="veh43" type="veh_passenger" depart="59.03" departLane="best" departSpeed="max" from="-51508352#2" to="-4645391#0"/>
    <trip id="veh44" type="veh_passenger" depart="60.40" departLane="best" departSpeed="max" from="27222779#0" to="362368395#2"/>
    <trip id="veh45" type="veh_passenger" depart="61.77" departLane="best" departSpeed="max" from="-51508352#2" to="-4645391#0"/>
    <trip id="veh46" type="veh_passenger" depart="63.15" departLane="best" departSpeed="max" from="-51508352#2" to="362368395#2"/>
    <trip id="veh47" type="veh_passenger" depart="64.52" departLane="best" departSpeed="max" from="376401312#0" to="-27222779#0"/>
    <trip id="veh48" type="veh_passenger" depart="65.89" departLane="best" departSpeed="max" from="-51508352#2" to="362368395#2"/>
    <trip id="veh49" type="veh_passenger" depart="67.26" departLane="best" departSpeed="max" from="-51508352#2" to="-40317922#1"/>
    <trip id="veh50" type="veh_passenger" depart="68.64" departLane="best" departSpeed="max" from="376401312#0" to="-4645391#0"/>
    <trip id="veh51" type="veh_passenger" depart="70.01" departLane="best" departSpeed="max" from="-51508352#2" to="-27222779#1"/>
    <trip id="veh52" type="veh_passenger" depart="71.38" departLane="best" departSpeed="max" from="27222779#0" to="362368395#2"/>
    <trip id="veh53" type="veh_passenger" depart="72.75" departLane="best" departSpeed="max" from="27222779#0" to="134929400#1"/>
    <trip id="veh54" type="veh_passenger" depart="74.13" departLane="best" departSpeed="max" from="376401312#0" to="-4645391#0"/>
    <trip id="veh55" type="veh_passenger" depart="75.50" departLane="best" departSpeed="max" from="-51508352#2" to="362368395#2"/>
    <trip id="veh56" type="veh_passenger" depart="76.87" departLane="best" departSpeed="max" from="27222779#0" to="51476080#5"/>
    <trip id="veh57" type="veh_passenger" depart="78.24" departLane="best" departSpeed="max" from="27222779#0" to="51508352#2"/>
    <trip id="veh59" type="veh_passenger" depart="80.99" departLane="best" from="943540702#0" to="51508352#2"/>
    <trip id="veh60" type="veh_passenger" depart="82.36" departLane="best" departSpeed="max" from="376401312#0" to="-4645391#0"/>
    <trip id="veh61" type="veh_passenger" depart="83.74" departLane="best" from="27222779#1" to="-4645391#0"/>
    <trip id="veh62" type="veh_passenger" depart="85.11" departLane="best" departSpeed="max" from="27222779#0" to="149935566#1"/>
    <trip id="veh64" type="veh_passenger" depart="87.85" departLane="best" departSpeed="max" from="-51508352#2" to="-4645391#0"/>
    <trip id="veh66" type="veh_passenger" depart="90.60" departLane="best" departSpeed="max" from="-51508352#2" to="-27222779#0"/>
    <trip id="veh68" type="veh_passenger" depart="93.34" departLane="best" departSpeed="max" from="27222779#0" to="362368395#2"/>
    <trip id="veh70" type="veh_passenger" depart="96.09" departLane="best" departSpeed="max" from="-51508352#2" to="4645391#2"/>
    <trip id="veh72" type="veh_passenger" depart="98.84" departLane="best" departSpeed="max" from="-51508352#2" to="362368395#2"/>
    <trip id="veh73" type="veh_passenger" depart="100.21" departLane="best" departSpeed="max" from="-51508352#2" to="-4645391#0"/>
    <trip id="veh74" type="veh_passenger" depart="101.58" departLane="best" from="134941607#1" to="51508352#2"/>
    <trip id="veh75" type="veh_passenger" depart="102.95" departLane="best" departSpeed="max" from="27222779#0" to="-4645391#0"/>
    <trip id="veh76" type="veh_passenger" depart="104.33" departLane="best" departSpeed="max" from="376401312#0" to="4645391#2"/>
    <trip id="veh80" type="veh_passenger" depart="109.82" departLane="best" departSpeed="max" from="-51508352#2" to="-27222779#0"/>
    <trip id="veh81" type="veh_passenger" depart="111.19" departLane="best" departSpeed="max" from="-51508352#2" to="362368395#2"/>
    <trip id="veh83" type="veh_passenger" depart="113.94" departLane="best" departSpeed="max" from="376401312#0" to="-4645391#0"/>
    <trip id="veh84" type="veh_passenger" depart="115.31" departLane="best" from="27222779#1" to="51508352#2"/>
    <trip id="veh85" type="veh_passenger" depart="116.68" departLane="best" departSpeed="max" from="376401312#0" to="-27222779#0"/>
    <trip id="veh86" type="veh_passenger" depart="118.05" departLane="best" departSpeed="max" from="27222779#0" to="51476080#5"/>
    <trip id="veh88" type="veh_passenger" depart="120.80" departLane="best" departSpeed="max" from="27222779#0" to="51508352#2"/>
    <trip id="veh89" type="veh_passenger" depart="122.17" departLane="best" departSpeed="max" from="-51508352#2" to="-27222779#0"/>
    <trip id="veh90" type="veh_passenger" depart="123.54" departLane="best" departSpeed="max" from="27222779#0" to="362368395#2"/>
    <trip id="veh91" type="veh_passenger" depart="124.92" departLane="best" departSpeed="max" from="27222779#0" to="51508352#2"/>
    <trip id="veh92" type="veh_passenger" depart="126.29" departLane="best" departSpeed="max" from="376401312#0" to="-4645391#2"/>
    <trip id="veh93" type="veh_passenger" depart="127.66" departLane="best" departSpeed="max" from="376401312#0" to="-27222779#0"/>
    <trip id="veh94" type="veh_passenger" depart="129.04" departLane="best" departSpeed="max" from="-51508352#2" to="4645391#2"/>
    <trip id="veh95" type="veh_passenger" depart="130.41" departLane="best" departSpeed="max" from="27222779#0" to="134929400#1"/>
    <trip id="veh96" type="veh_passenger" depart="131.78" departLane="best" departSpeed="max" from="376401312#0" to="-4645391#0"/>
    <trip id="veh97" type="veh_passenger" depart="133.15" departLane="best" departSpeed="max" from="27222779#0" to="51508352#2"/>
    <trip id="veh99" type="veh_passenger" depart="135.90" departLane="best" from="51476080#6" to="-27222779#0"/>
    <trip id="veh100" type="veh_passenger" depart="137.27" departLane="best" from="943540702#0" to="-4645391#0"/>
    <trip id="veh101" type="veh_passenger" depart="138.64" departLane="best" departSpeed="max" from="-51508352#2" to="-27222779#2"/>
    <trip id="veh103" type="veh_passenger" depart="141.39" departLane="best" departSpeed="max" from="27222779#0" to="362368395#2"/>
    <trip id="veh104" type="veh_passenger" depart="142.76" departLane="best" departSpeed="max" from="-51508352#2" to="4645391#2"/>
    <trip id="veh105" type="veh_passenger" depart="144.14" departLane="best" from="27222779#1" to="51508352#2"/>
    <trip id="veh107" type="veh_passenger" depart="146.88" departLane="best" departSpeed="max" from="27222779#0" to="51508352#2"/>
    <trip id="veh108" type="veh_passenger" depart="148.25" departLane="best" departSpeed="max" from="27222779#0" to="134929400#1"/>
    <trip id="veh109" type="veh_passenger" depart="149.63" departLane="best" departSpeed="max" from="-51508352#2" to="147557400#5"/>
    <trip id="veh111" type="veh_passenger" depart="152.37" departLane="best" departSpeed="max" from="27222779#0" to="362368395#2"/>
    <trip id="veh112" type="veh_passenger" depart="153.74" departLane="best" from="27222779#1" to="134929400#1"/>
    <trip id="veh113" type="veh_passenger" depart="155.12" departLane="best" departSpeed="max" from="27222779#0" to="362368395#2"/>
    <trip id="veh115" type="veh_passenger" depart="157.86" departLane="best" departSpeed="max" from="27222779#0" to="-4645391#0"/>
    <trip id="veh116" type="veh_passenger" depart="159.24" departLane="best" departSpeed="max" from="27222779#0" to="51508352#2"/>
    <trip id="veh117" type="veh_passenger" depart="160.61" departLane="best" departSpeed="max" from="376401312#0" to="-4645391#0"/>
    <trip id="veh118" type="veh_passenger" depart="161.98" departLane="best" departSpeed="max" from="-51508352#2" to="362368395#2"/>
    <trip id="veh120" type="veh_passenger" depart="164.73" departLane="best" departSpeed="max" from="376401312#0" to="4645391#2"/>
    <trip id="veh121" type="veh_passenger" depart="166.10" departLane="best" departSpeed="max" from="-51508352#2" to="-27222779#0"/>
    <trip id="veh122" type="veh_passenger" depart="167.47" departLane="best" departSpeed="max" from="-51508352#2" to="362368395#2"/>
    <trip id="veh123" type="veh_passenger" depart="168.84" departLane="best" departSpeed="max" from="376401312#0" to="-27222779#0"/>
    <trip id="veh124" type="veh_passenger" depart="170.22" departLane="best" departSpeed="max" from="27222779#0" to="362368395#2"/>
    <trip id="veh125" type="veh_passenger" depart="171.59" departLane="best" departSpeed="max" from="-51508352#2" to="40317927#1"/>
    <trip id="veh127" type="veh_passenger" depart="174.34" departLane="best" departSpeed="max" from="376401312#0" to="4645391#2"/>
    <trip id="veh131" type="veh_passenger" depart="179.83" departLane="best" from="-40317922#3" to="362368395#2"/>
    <trip id="veh132" type="veh_passenger" depart="181.20" departLane="best" departSpeed="max" from="27222779#0" to="-4645391#0"/>
    <trip id="veh133" type="veh_passenger" depart="182.57" departLane="best" departSpeed="max" from="-51508352#2" to="362368395#2"/>
    <trip id="veh135" type="veh_passenger" depart="185.32" departLane="best" departSpeed="max" from="376401312#0" to="-27222779#0"/>
    <trip id="veh136" type="veh_passenger" depart="186.69" departLane="best" departSpeed="max" from="27222779#0" to="362368395#2"/>
    <trip id="veh137" type="veh_passenger" depart="188.06" departLane="best" departSpeed="max" from="27222779#0" to="-4645391#0"/>
    <trip id="veh138" type="veh_passenger" depart="189.44" departLane="best" departSpeed="max" from="27222779#0" to="51508352#2"/>
    <trip id="veh140" type="veh_passenger" depart="192.18" departLane="best" departSpeed="max" from="376401312#0" to="4645391#2"/>
    <trip id="veh142" type="veh_passenger" depart="194.93" departLane="best" departSpeed="max" from="-51508352#2" to="-4645391#0"/>
    <trip id="veh143" type="veh_passenger" depart="196.30" departLane="best" departSpeed="max" from="27222779#0" to="362368395#2"/>
    <trip id="veh144" type="veh_passenger" depart="197.67" departLane="best" departSpeed="max" from="27222779#0" to="-4645391#0"/>
    <trip id="veh145" type="veh_passenger" depart="199.04" departLane="best" departSpeed="max" from="27222779#0" to="392103887"/>
    <trip id="veh147" type="veh_passenger" depart="201.79" departLane="best" departSpeed="max" from="27222779#0" to="362368395#2"/>
    <trip id="veh148" type="veh_passenger" depart="203.16" departLane="best" from="-40317922#3" to="362368395#2"/>
    <trip id="veh149" type="veh_passenger" depart="204.54" departLane="best" departSpeed="max" from="-51508352#2" to="362368395#2"/>
    <trip id="veh150" type="veh_passenger" depart="205.91" departLane="best" departSpeed="max" from="-51508352#2" to="-27222779#0"/>
    <trip id="veh151" type="veh_passenger" depart="207.28" departLane="best" from="-40317922#1" to="362368395#2"/>
    <trip id="veh152" type="veh_passenger" depart="208.65" departLane="best" departSpeed="max" from="-51508352#2" to="362368395#2"/>
    <trip id="veh153" type="veh_passenger" depart="210.03" departLane="best" departSpeed="max" from="376401312#0" to="4645391#2"/>
    <trip id="veh154" type="veh_passenger" depart="211.40" departLane="best" departSpeed="max" from="-51508352#2" to="362368395#2"/>
    <trip id="veh155" type="veh_passenger" depart="212.77" departLane="best" departSpeed="max" from="376401312#0" to="-27222779#0"/>
    <trip id="veh156" type="veh_passenger" depart="214.14" departLane="best" departSpeed="max" from="-51508352#2" to="-27222779#0"/>
    <trip id="veh157" type="veh_passenger" depart="215.52" departLane="best" departSpeed="max" from="27222779#0" to="362368395#2"/>
    <trip id="veh158" type="veh_passenger" depart="216.89" departLane="best" departSpeed="max" from="376401312#0" to="-27222779#0"/>
    <trip id="veh159" type="veh_passenger" depart="218.26" departLane="best" departSpeed="max" from="-51508352#2" to="4645391#2"/>
    <trip id="veh160" type="veh_passenger" depart="219.64" departLane="best" departSpeed="max" from="-51508352#2" to="943540702#1"/>
    <trip id="veh161" type="veh_passenger" depart="221.01" departLane="best" departSpeed="max" from="27222779#0" to="134929400#1"/>
    <trip id="veh163" type="veh_passenger" depart="223.75" departLane="best" departSpeed="max" from="376401312#0" to="4645392#1"/>
    <trip id="veh167" type="veh_passenger" depart="229.24" departLane="best" departSpeed="max" from="376401312#0" to="-27222779#0"/>
    <trip id="veh168" type="veh_passenger" depart="230.62" departLane="best" departSpeed="max" from="27222779#0" to="362368395#2"/>
    <trip id="veh169" type="veh_passenger" depart="231.99" departLane="best" departSpeed="max" from="376401312#0" to="-4645391#0"/>
    <trip id="veh170" type="veh_passenger" depart="233.36" departLane="best" departSpeed="max" from="-51508352#2" to="4645391#2"/>
    <trip id="veh171" type="veh_passenger" depart="234.73" departLane="best" departSpeed="max" from="27222779#0" to="51508352#2"/>
    <trip id="veh172" type="veh_passenger" depart="236.11" departLane="best" from="344664988#0" to="51508352#2"/>
    <trip id="veh173" type="veh_passenger" depart="237.48" departLane="best" departSpeed="max" from="-51508352#2" to="4645391#2"/>
    <trip id="veh174" type="veh_passenger" depart="238.85" departLane="best" departSpeed="max" from="-51508352#2" to="-4645391#0"/>
    <trip id="veh176" type="veh_passenger" depart="241.60" departLane="best" departSpeed="max" from="-51508352#2" to="-27222779#1"/>
    <trip id="veh177" type="veh_passenger" depart="242.97" departLane="best" departSpeed="max" from="-51508352#2" to="-27222779#0"/>
    <trip id="veh178" type="veh_passenger" depart="244.34" departLane="best" departSpeed="max" from="-51508352#2" to="-4645391#0"/>
    <trip id="veh179" type="veh_passenger" depart="245.72" departLane="best" from="149935566#1" to="-27222779#0"/>
    <trip id="veh180" type="veh_passenger" depart="247.09" departLane="best" departSpeed="max" from="-51508352#2" to="-4645391#0"/>
    <trip id="veh181" type="veh_passenger" depart="248.46" departLane="best" departSpeed="max" from="-51508352#2" to="-27222779#0"/>
    <trip id="veh183" type="veh_passenger" depart="251.21" departLane="best" departSpeed="max" from="27222779#0" to="362368395#2"/>
    <trip id="veh184" type="veh_passenger" depart="252.58" departLane="best" departSpeed="max" from="-51508352#2" to="-27222779#0"/>
    <trip id="veh185" type="veh_passenger" depart="253.95" departLane="best" departSpeed="max" from="-51508352#2" to="362368395#2"/>
    <trip id="veh186" type="veh_passenger" depart="255.33" departLane="best" from="51476080#4" to="-4645391#0"/>
    <trip id="veh188" type="veh_passenger" depart="258.07" departLane="best" from="-943542797#0" to="-27222779#0"/>
    <trip id="veh189" type="veh_passenger" depart="259.44" departLane="best" departSpeed="max" from="376401312#0" to="-4645391#0"/>
    <trip id="veh191" type="veh_passenger" depart="262.19" departLane="best" departSpeed="max" from="27222779#0" to="51508352#2"/>
    <trip id="veh192" type="veh_passenger" depart="263.56" departLane="best" from="943540703#2" to="134929400#1"/>
    <trip id="veh194" type="veh_passenger" depart="266.31" departLane="best" departSpeed="max" from="-51508352#2" to="-4645391#0"/>
    <trip id="veh195" type="veh_passenger" depart="267.68" departLane="best" departSpeed="max" from="-51508352#2" to="-27222779#0"/>
    <trip id="veh196" type="veh_passenger" depart="269.05" departLane="best" from="27222779#1" to="362368395#2"/>
    <trip id="veh198" type="veh_passenger" depart="271.80" departLane="best" departSpeed="max" from="-51508352#2" to="4645391#2"/>
    <trip id="veh199" type="veh_passenger" depart="273.17" departLane="best" from="344664988#0" to="51508352#2"/>
    <trip id="veh201" type="veh_passenger" depart="275.92" departLane="best" departSpeed="max" from="27222779#0" to="362368395#2"/>
    <trip id="veh203" type="veh_passenger" depart="278.66" departLane="best" departSpeed="max" from="376401312#0" to="-27222779#0"/>
    <trip id="veh204" type="veh_passenger" depart="280.03" departLane="best" from="149935566#1" to="-27222779#2"/>
    <trip id="veh205" type="veh_passenger" depart="281.41" departLane="best" departSpeed="max" from="376401312#0" to="4645391#1"/>
    <trip id="veh207" type="veh_passenger" depart="284.15" departLane="best" departSpeed="max" from="27222779#0" to="-4645391#0"/>
    <trip id="veh209" type="veh_passenger" depart="286.90" departLane="best" departSpeed="max" from="27222779#0" to="362368395#2"/>
    <trip id="veh211" type="veh_passenger" depart="289.64" departLane="best" departSpeed="max" from="27222779#0" to="134929400#1"/>
    <trip id="veh213" type="veh_passenger" depart="292.39" departLane="best" departSpeed="max" from="27222779#0" to="40317922#4"/>
    <trip id="veh214" type="veh_passenger" depart="293.76" departLane="best" departSpeed="max" from="27222779#0" to="134929400#1"/>
    <trip id="veh215" type="veh_passenger" depart="295.13" departLane="best" departSpeed="max" from="27222779#0" to="58561799#1"/>
    <trip id="veh216" type="veh_passenger" depart="296.51" departLane="best" departSpeed="max" from="27222779#0" to="362368395#2"/>
    <trip id="veh217" type="veh_passenger" depart="297.88" departLane="best" departSpeed="max" from="376401312#0" to="-4645391#0"/>
    <trip id="veh219" type="veh_passenger" depart="300.63" departLane="best" departSpeed="max" from="27222779#0" to="4645391#0"/>
    <trip id="veh220" type="veh_passenger" depart="302.00" departLane="best" departSpeed="max" from="-51508352#2" to="362368395#2"/>
    <trip id="veh222" type="veh_passenger" depart="304.74" departLane="best" from="943540703#2" to="51508352#2"/>
    <trip id="veh223" type="veh_passenger" depart="306.12" departLane="best" from="943540702#1" to="-4645391#0"/>
    <trip id="veh225" type="veh_passenger" depart="308.86" departLane="best" departSpeed="max" from="27222779#0" to="51508352#2"/>
    <trip id="veh226" type="veh_passenger" depart="310.23" departLane="best" from="27222779#2" to="-4645391#0"/>
    <trip id="veh229" type="veh_passenger" depart="314.35" departLane="best" departSpeed="max" from="27222779#0" to="134929400#1"/>
    <trip id="veh230" type="veh_passenger" depart="315.73" departLane="best" departSpeed="max" from="-51508352#2" to="4645391#0"/>
    <trip id="veh231" type="veh_passenger" depart="317.10" departLane="best" departSpeed="max" from="376401312#0" to="-27222779#0"/>
    <trip id="veh232" type="veh_passenger" depart="318.47" departLane="best" departSpeed="max" from="376401312#0" to="4645391#2"/>
    <trip id="veh237" type="veh_passenger" depart="325.33" departLane="best" departSpeed="max" from="27222779#0" to="58561799#1"/>
    <trip id="veh238" type="veh_passenger" depart="326.71" departLane="best" departSpeed="max" from="27222779#0" to="40317922#4"/>
    <trip id="veh240" type="veh_passenger" depart="329.45" departLane="best" departSpeed="max" from="27222779#0" to="134929400#1"/>
    <trip id="veh241" type="veh_passenger" depart="330.83" departLane="best" departSpeed="max" from="376401312#0" to="4645391#2"/>
    <trip id="veh242" type="veh_passenger" depart="332.20" departLane="best" departSpeed="max" from="376401312#0" to="-27222779#0"/>
    <trip id="veh243" type="veh_passenger" depart="333.57" departLane="best" departSpeed="max" from="-51508352#2" to="362368395#2"/>
    <trip id="veh244" type="veh_passenger" depart="334.94" departLane="best" from="51476080#1" to="-943542797#0"/>
    <trip id="veh245" type="veh_passenger" depart="336.32" departLane="best" departSpeed="max" from="376401312#0" to="-27222779#2"/>
    <trip id="veh246" type="veh_passenger" depart="337.69" departLane="best" departSpeed="max" from="-51508352#2" to="362368395#2"/>
    <trip id="veh247" type="veh_passenger" depart="339.06" departLane="best" from="51476080#2" to="4645391#2"/>
    <trip id="veh248" type="veh_passenger" depart="340.43" departLane="best" departSpeed="max" from="-51508352#2" to="362368395#2"/>
    <trip id="veh249" type="veh_passenger" depart="341.81" departLane="best" departSpeed="max" from="-51508352#2" to="-27222779#0"/>
    <trip id="veh250" type="veh_passenger" depart="343.18" departLane="best" departSpeed="max" from="-51508352#2" to="362368395#2"/>
    <trip id="veh251" type="veh_passenger" depart="344.55" departLane="best" departSpeed="max" from="-51508352#2" to="-4645391#0"/>
    <trip id="veh252" type="veh_passenger" depart="345.93" departLane="best" from="344664988#0" to="4645391#2"/>
    <trip id="veh253" type="veh_passenger" depart="347.30" departLane="best" from="40317927#1" to="362368395#2"/>
    <trip id="veh254" type="veh_passenger" depart="348.67" departLane="best" departSpeed="max" from="-51508352#2" to="362368395#2"/>
    <trip id="veh255" type="veh_passenger" depart="350.04" departLane="best" departSpeed="max" from="27222779#0" to="362368395#2"/>
    <trip id="veh256" type="veh_passenger" depart="351.42" departLane="best" departSpeed="max" from="27222779#0" to="-4645391#0"/>
    <trip id="veh259" type="veh_passenger" depart="355.53" departLane="best" from="344664988#0" to="4645391#2"/>
    <trip id="veh261" type="veh_passenger" depart="358.28" departLane="best" from="149935566#1" to="4645391#2"/>
    <trip id="veh267" type="veh_passenger" depart="366.52" departLane="best" departSpeed="max" from="27222779#0" to="362368395#2"/>
    <trip id="veh268" type="veh_passenger" depart="367.89" departLane="best" departSpeed="max" from="376401312#0" to="-27222779#0"/>
    <trip id="veh269" type="veh_passenger" depart="369.26" departLane="best" from="149935566#2" to="4645391#2"/>
    <trip id="veh271" type="veh_passenger" depart="372.01" departLane="best" departSpeed="max" from="376401312#0" to="-4645391#0"/>
    <trip id="veh272" type="veh_passenger" depart="373.38" departLane="best" departSpeed="max" from="376401312#0" to="4645391#2"/>
    <trip id="veh273" type="veh_passenger" depart="374.75" departLane="best" from="943540702#0" to="51508352#2"/>
    <trip id="veh274" type="veh_passenger" depart="376.13" departLane="best" from="-392103887" to="362368395#2"/>
    <trip id="veh275" type="veh_passenger" depart="377.50" departLane="best" departSpeed="max" from="27222779#0" to="362368395#2"/>
    <trip id="veh277" type="veh_passenger" depart="380.24" departLane="best" departSpeed="max" from="-51508352#2" to="-4645391#0"/>
    <trip id="veh278" type="veh_passenger" depart="381.62" departLane="best" from="-40317922#2" to="51508352#2"/>
    <trip id="veh280" type="veh_passenger" depart="384.36" departLane="best" departSpeed="max" from="-51508352#2" to="-27222779#0"/>
    <trip id="veh281" type="veh_passenger" depart="385.73" departLane="best" departSpeed="max" from="27222779#0" to="362368395#2"/>
    <trip id="veh282" type="veh_passenger" depart="387.11" departLane="best" departSpeed="max" from="-51508352#2" to="362368395#2"/>
    <trip id="veh283" type="veh_passenger" depart="388.48" departLane="best" departSpeed="max" from="376401312#0" to="-4645391#0"/>
    <trip id="veh284" type="veh_passenger" depart="389.85" departLane="best" from="58561799#1" to="-27222779#0"/>
    <trip id="veh285" type="veh_passenger" depart="391.22" departLane="best" departSpeed="max" from="27222779#0" to="362368395#2"/>
    <trip id="veh286" type="veh_passenger" depart="392.60" departLane="best" departSpeed="max" from="-51508352#2" to="-40317922#1"/>
    <trip id="veh287" type="veh_passenger" depart="393.97" departLane="best" departSpeed="max" from="27222779#0" to="134929400#1"/>
    <trip id="veh288" type="veh_passenger" depart="395.34" departLane="best" departSpeed="max" from="-51508352#2" to="-27222779#1"/>
    <trip id="veh291" type="veh_passenger" depart="399.46" departLane="best" departSpeed="max" from="376401312#0" to="-4645391#0"/>