<?xml version="1.0" encoding="UTF-8"?>

<!-- generated on 2024-09-04 10:41:08 by Eclipse SUMO netconvert Version 1.20.0
<configuration xmlns:xsi="http://www.w3.org/2001/XMLSchema-instance" xsi:noNamespaceSchemaLocation="http://sumo.dlr.de/xsd/netconvertConfiguration.xsd">

    <input>
        <type-files value="${SUMO_HOME}/data/typemap/osmNetconvert.typ.xml"/>
        <osm-files value="osm_bbox.osm.xml.gz"/>
    </input>

    <output>
        <output-file value="osm.net.xml.gz"/>
        <output.street-names value="true"/>
        <output.original-names value="true"/>
    </output>

    <projection>
        <proj.utm value="true"/>
    </projection>

    <processing>
        <geometry.remove value="true"/>
        <roundabouts.guess value="true"/>
    </processing>

    <tls_building>
        <tls.discard-simple value="true"/>
        <tls.join value="true"/>
        <tls.guess-signals value="true"/>
        <tls.default-type value="actuated"/>
    </tls_building>

    <ramp_guessing>
        <ramps.guess value="true"/>
    </ramp_guessing>

    <junctions>
        <junctions.join value="true"/>
        <junctions.corner-detail value="5"/>
    </junctions>

</configuration>
-->

<net version="1.20" junctionCornerDetail="5" limitTurnSpeed="5.50" xmlns:xsi="http://www.w3.org/2001/XMLSchema-instance" xsi:noNamespaceSchemaLocation="http://sumo.dlr.de/xsd/net_file.xsd">

    <location netOffset="-690747.88,-5335832.67" convBoundary="0.00,0.00,430.63,428.91" origBoundary="11.564617,48.147100,11.570387,48.150866" projParameter="+proj=utm +zone=32 +ellps=WGS84 +datum=WGS84 +units=m +no_defs"/>

    <type id="highway.footway" priority="1" numLanes="1" speed="2.78" allow="pedestrian" oneway="1" width="2.00"/>
    <type id="highway.path" priority="1" numLanes="1" speed="5.56" allow="pedestrian bicycle" oneway="0" width="2.00"/>
    <type id="highway.residential" priority="3" numLanes="1" speed="13.89" disallow="tram rail_urban rail rail_electric rail_fast ship container cable_car subway aircraft wheelchair scooter drone" oneway="0"/>
    <type id="highway.secondary" priority="11" numLanes="1" speed="27.78" disallow="tram rail_urban rail rail_electric rail_fast ship container cable_car subway aircraft wheelchair scooter drone" oneway="0"/>
    <type id="highway.service" priority="1" numLanes="1" speed="5.56" allow="pedestrian delivery bicycle" oneway="0"/>
    <type id="highway.steps" priority="1" numLanes="1" speed="1.39" allow="pedestrian" oneway="1" width="2.00"/>

    <edge id=":10142544413_0" function="internal">
        <lane id=":10142544413_0_0" index="0" allow="pedestrian delivery bicycle" speed="3.65" length="4.67" shape="63.99,214.43 62.58,214.15 61.90,213.57 61.97,212.67 62.77,211.48"/>
    </edge>
    <edge id=":10199385975_0" function="internal">
        <lane id=":10199385975_0_0" index="0" allow="pedestrian delivery bicycle" speed="3.65" length="4.67" shape="105.15,304.07 104.84,305.48 104.24,306.14 103.35,306.06 102.17,305.24"/>
    </edge>
    <edge id=":10199385976_0" function="internal">
        <lane id=":10199385976_0_0" index="0" allow="pedestrian delivery bicycle" speed="5.06" length="5.05" shape="95.75,288.77 95.06,287.54 94.16,286.83 93.05,286.62 91.72,286.93"/>
    </edge>
    <edge id=":10199385976_1" function="internal">
        <lane id=":10199385976_1_0" index="0" allow="pedestrian delivery bicycle" speed="5.56" length="10.22" shape="95.75,288.77 95.11,286.04 95.50,283.77 96.93,281.96 99.39,280.61"/>
    </edge>
    <edge id=":10199385976_2" function="internal">
        <lane id=":10199385976_2_0" index="0" allow="pedestrian delivery bicycle" speed="3.65" length="4.67" shape="95.75,288.77 96.06,287.36 96.66,286.70 97.55,286.78 98.73,287.61"/>
    </edge>
    <edge id=":10199385976_3" function="internal">
        <lane id=":10199385976_3_0" index="0" allow="pedestrian delivery bicycle" speed="5.03" length="5.01" shape="100.52,283.60 99.31,284.27 98.61,285.15 98.42,286.27 98.73,287.61"/>
    </edge>
    <edge id=":10199385976_4" function="internal">
        <lane id=":10199385976_4_0" index="0" allow="pedestrian delivery bicycle" speed="5.56" length="9.40" shape="100.52,283.60 91.72,286.93"/>
    </edge>
    <edge id=":10199385976_5" function="internal">
        <lane id=":10199385976_5_0" index="0" allow="pedestrian delivery bicycle" speed="3.65" length="4.67" shape="100.52,283.60 99.11,283.28 98.45,282.67 98.55,281.78 99.39,280.61"/>
    </edge>
    <edge id=":10199385976_6" function="internal">
        <lane id=":10199385976_6_0" index="0" allow="pedestrian delivery bicycle" speed="5.56" length="9.40" shape="90.59,283.93 99.39,280.61"/>
    </edge>
    <edge id=":10199385976_7" function="internal">
        <lane id=":10199385976_7_0" index="0" allow="pedestrian delivery bicycle" speed="5.56" length="10.19" shape="90.59,283.93 93.28,283.31 95.54,283.72 97.35,285.15 98.73,287.61"/>
    </edge>
    <edge id=":10199385976_8" function="internal">
        <lane id=":10199385976_8_0" index="0" allow="pedestrian delivery bicycle" speed="3.65" length="4.67" shape="90.59,283.93 91.99,284.26 92.65,284.86 92.56,285.75 91.72,286.93"/>
    </edge>
    <edge id=":10199385977_0" function="internal">
        <lane id=":10199385977_0_0" index="0" allow="pedestrian delivery bicycle" speed="3.65" length="4.67" shape="76.29,292.94 74.88,292.63 74.22,292.03 74.30,291.14 75.13,289.96"/>
    </edge>
    <edge id=":10855746723_0" function="internal">
        <lane id=":10855746723_0_0" index="0" allow="pedestrian delivery bicycle" speed="3.65" length="4.67" shape="209.67,138.59 211.08,138.90 211.74,139.50 211.66,140.39 210.83,141.57"/>
    </edge>
    <edge id=":11401594541_0" function="internal">
        <lane id=":11401594541_0_0" index="0" allow="pedestrian delivery bicycle" speed="3.65" length="4.67" shape="10.06,109.72 8.65,109.41 7.98,108.82 8.06,107.93 8.88,106.74"/>
    </edge>
    <edge id=":12067724218_0" function="internal">
        <lane id=":12067724218_0_0" index="0" allow="pedestrian delivery bicycle" speed="5.56" length="5.00" shape="203.61,169.92 201.78,165.26"/>
    </edge>
    <edge id=":12067724218_1" function="internal">
        <lane id=":12067724218_1_0" index="0" allow="pedestrian delivery bicycle" speed="3.65" length="1.44" shape="203.61,169.92 203.91,168.51"/>
    </edge>
    <edge id=":12067724218_4" function="internal">
        <lane id=":12067724218_4_0" index="0" allow="pedestrian delivery bicycle" speed="3.65" length="3.23" shape="203.91,168.51 204.51,167.84 205.40,167.92 206.59,168.75"/>
    </edge>
    <edge id=":12067724218_2" function="internal">
        <lane id=":12067724218_2_0" index="0" allow="pedestrian delivery bicycle" speed="5.56" length="5.00" shape="204.76,164.09 206.59,168.75"/>
    </edge>
    <edge id=":12067724218_3" function="internal">
        <lane id=":12067724218_3_0" index="0" allow="pedestrian delivery bicycle" speed="3.65" length="1.44" shape="204.76,164.09 204.46,165.50"/>
    </edge>
    <edge id=":12067724218_5" function="internal">
        <lane id=":12067724218_5_0" index="0" allow="pedestrian delivery bicycle" speed="3.65" length="3.23" shape="204.46,165.50 203.86,166.17 202.97,166.09 201.78,165.26"/>
    </edge>
    <edge id=":130355233_0" function="internal">
        <lane id=":130355233_0_0" index="0" allow="pedestrian delivery bicycle" speed="5.56" length="5.02" shape="402.27,181.31 397.59,183.12"/>
    </edge>
    <edge id=":130355233_1" function="internal">
        <lane id=":130355233_1_0" index="0" allow="pedestrian delivery bicycle" speed="3.65" length="4.67" shape="402.27,181.31 400.86,180.99 400.20,180.38 400.29,179.49 401.13,178.32"/>
    </edge>
    <edge id=":130355233_2" function="internal">
        <lane id=":130355233_2_0" index="0" allow="pedestrian delivery bicycle" speed="5.56" length="5.05" shape="396.42,180.14 401.13,178.32"/>
    </edge>
    <edge id=":130355233_3" function="internal">
        <lane id=":130355233_3_0" index="0" allow="pedestrian delivery bicycle" speed="3.65" length="4.67" shape="396.42,180.14 397.83,180.45 398.49,181.05 398.41,181.94 397.59,183.12"/>
    </edge>
    <edge id=":130356245_0" function="internal">
        <lane id=":130356245_0_0" index="0" allow="pedestrian delivery bicycle" speed="3.65" length="4.67" shape="430.08,167.48 431.48,167.82 432.13,168.43 432.03,169.32 431.18,170.48"/>
    </edge>
    <edge id=":130358856_0" function="internal">
        <lane id=":130358856_0_0" index="0" allow="pedestrian delivery bicycle" speed="5.56" length="7.16" shape="340.95,205.44 334.24,207.93"/>
    </edge>
    <edge id=":130358856_1" function="internal">
        <lane id=":130358856_1_0" index="0" allow="pedestrian delivery bicycle" speed="3.65" length="1.44" shape="340.95,205.44 339.54,205.14"/>
    </edge>
    <edge id=":130358856_4" function="internal">
        <lane id=":130358856_4_0" index="0" allow="pedestrian delivery bicycle" speed="3.65" length="3.23" shape="339.54,205.14 338.88,204.54 338.96,203.65 339.78,202.47"/>
    </edge>
    <edge id=":130358856_2" function="internal">
        <lane id=":130358856_2_0" index="0" allow="pedestrian delivery bicycle" speed="5.56" length="7.06" shape="333.16,204.92 339.78,202.47"/>
    </edge>
    <edge id=":130358856_3" function="internal">
        <lane id=":130358856_3_0" index="0" allow="pedestrian delivery bicycle" speed="3.65" length="1.44" shape="333.16,204.92 334.56,205.27"/>
    </edge>
    <edge id=":130358856_5" function="internal">
        <lane id=":130358856_5_0" index="0" allow="pedestrian delivery bicycle" speed="3.65" length="3.23" shape="334.56,205.27 335.21,205.89 335.10,206.77 334.24,207.93"/>
    </edge>
    <edge id=":1326631454_0" function="internal">
        <lane id=":1326631454_0_0" index="0" allow="pedestrian delivery bicycle" speed="4.90" length="4.75" shape="356.72,202.22 356.12,201.15 355.27,200.55 354.18,200.42 352.84,200.76"/>
    </edge>
    <edge id=":1326631454_1" function="internal">
        <lane id=":1326631454_1_0" index="0" allow="pedestrian delivery bicycle" speed="5.56" length="9.88" shape="356.72,202.22 356.18,199.62 356.61,197.44 358.03,195.68 360.41,194.34"/>
    </edge>
    <edge id=":1326631454_2" function="internal">
        <lane id=":1326631454_2_0" index="0" allow="pedestrian delivery bicycle" speed="3.65" length="4.67" shape="356.72,202.22 357.06,200.82 357.67,200.17 358.56,200.27 359.72,201.12"/>
    </edge>
    <edge id=":1326631454_3" function="internal">
        <lane id=":1326631454_3_0" index="0" allow="pedestrian delivery bicycle" speed="5.00" length="4.81" shape="361.59,197.31 360.40,197.97 359.70,198.83 359.47,199.88 359.72,201.12"/>
    </edge>
    <edge id=":1326631454_4" function="internal">
        <lane id=":1326631454_4_0" index="0" allow="pedestrian delivery bicycle" speed="5.56" length="9.40" shape="361.59,197.31 352.84,200.76"/>
    </edge>
    <edge id=":1326631454_5" function="internal">
        <lane id=":1326631454_5_0" index="0" allow="pedestrian delivery bicycle" speed="3.65" length="4.67" shape="361.59,197.31 360.18,197.01 359.51,196.41 359.59,195.52 360.41,194.34"/>
    </edge>
    <edge id=":1326631454_6" function="internal">
        <lane id=":1326631454_6_0" index="0" allow="pedestrian delivery bicycle" speed="5.56" length="9.40" shape="351.67,197.78 360.41,194.34"/>
    </edge>
    <edge id=":1326631454_7" function="internal">
        <lane id=":1326631454_7_0" index="0" allow="pedestrian delivery bicycle" speed="5.56" length="10.00" shape="351.67,197.78 354.41,197.11 356.67,197.44 358.44,198.78 359.72,201.12"/>
    </edge>
    <edge id=":1326631454_8" function="internal">
        <lane id=":1326631454_8_0" index="0" allow="pedestrian delivery bicycle" speed="3.65" length="4.67" shape="351.67,197.78 353.08,198.09 353.74,198.68 353.66,199.58 352.84,200.76"/>
    </edge>
    <edge id=":1326631482_0" function="internal">
        <lane id=":1326631482_0_0" index="0" disallow="tram rail_urban rail rail_electric rail_fast ship container cable_car subway aircraft wheelchair scooter drone" speed="13.89" length="9.42" shape="318.87,217.05 315.42,208.29"/>
    </edge>
    <edge id=":1326631482_1" function="internal">
        <lane id=":1326631482_1_0" index="0" allow="pedestrian delivery bicycle" speed="6.92" length="3.23" shape="318.87,217.05 318.24,214.38 318.32,213.90"/>
    </edge>
    <edge id=":1326631482_7" function="internal">
        <lane id=":1326631482_7_0" index="0" allow="pedestrian delivery bicycle" speed="6.92" length="6.94" shape="318.32,213.90 318.62,212.12 320.03,210.27 322.44,208.83"/>
    </edge>
    <edge id=":1326631482_2" function="internal">
        <lane id=":1326631482_2_0" index="0" allow="pedestrian delivery bicycle" speed="5.11" length="5.10" shape="323.68,211.78 322.46,212.50 321.74,213.43 321.54,214.55 321.85,215.88"/>
    </edge>
    <edge id=":1326631482_3" function="internal">
        <lane id=":1326631482_3_0" index="0" allow="pedestrian delivery bicycle" speed="6.84" length="10.29" shape="323.68,211.78 320.95,212.49 318.66,212.15 316.82,210.75 315.42,208.29"/>
    </edge>
    <edge id=":1326631482_4" function="internal">
        <lane id=":1326631482_4_0" index="0" allow="pedestrian delivery bicycle" speed="3.65" length="4.67" shape="323.68,211.78 322.27,211.51 321.59,210.92 321.65,210.03 322.44,208.83"/>
    </edge>
    <edge id=":1326631482_5" function="internal">
        <lane id=":1326631482_5_0" index="0" allow="pedestrian delivery bicycle" speed="5.01" length="5.03" shape="318.41,207.12 319.09,208.32 319.99,209.01 321.11,209.18 322.44,208.83"/>
    </edge>
    <edge id=":1326631482_6" function="internal">
        <lane id=":1326631482_6_0" index="0" disallow="tram rail_urban rail rail_electric rail_fast ship container cable_car subway aircraft wheelchair scooter drone" speed="13.89" length="9.41" shape="318.41,207.12 321.85,215.88"/>
    </edge>
    <edge id=":1326631557_0" function="internal">
        <lane id=":1326631557_0_0" index="0" allow="pedestrian delivery bicycle" speed="3.65" length="4.67" shape="359.79,201.31 359.45,202.71 358.84,203.36 357.95,203.26 356.79,202.41"/>
    </edge>
    <edge id=":1344355525_0" function="internal">
        <lane id=":1344355525_0_0" index="0" allow="pedestrian delivery bicycle" speed="3.65" length="4.67" shape="411.91,168.83 412.21,167.41 412.80,166.75 413.69,166.82 414.88,167.64"/>
    </edge>
    <edge id=":1344355527_0" function="internal">
        <lane id=":1344355527_0_0" index="0" allow="pedestrian delivery bicycle" speed="5.56" length="9.34" shape="420.74,174.32 411.99,177.59"/>
    </edge>
    <edge id=":1344355527_1" function="internal">
        <lane id=":1344355527_1_0" index="0" allow="pedestrian delivery bicycle" speed="5.56" length="10.13" shape="420.74,174.32 418.06,174.88 415.81,174.45 413.99,173.02 412.61,170.59"/>
    </edge>
    <edge id=":1344355527_2" function="internal">
        <lane id=":1344355527_2_0" index="0" allow="pedestrian delivery bicycle" speed="3.65" length="4.67" shape="420.74,174.32 419.33,173.98 418.68,173.37 418.78,172.48 419.63,171.31"/>
    </edge>
    <edge id=":1344355527_3" function="internal">
        <lane id=":1344355527_3_0" index="0" allow="pedestrian delivery bicycle" speed="5.12" length="5.08" shape="415.58,169.40 416.28,170.64 417.19,171.36 418.30,171.59 419.63,171.31"/>
    </edge>
    <edge id=":1344355527_4" function="internal">
        <lane id=":1344355527_4_0" index="0" allow="pedestrian delivery bicycle" speed="5.56" length="10.23" shape="415.58,169.40 416.24,172.14 415.86,174.41 414.45,176.23 411.99,177.59"/>
    </edge>
    <edge id=":1344355527_5" function="internal">
        <lane id=":1344355527_5_0" index="0" allow="pedestrian delivery bicycle" speed="3.65" length="4.67" shape="415.58,169.40 415.28,170.82 414.69,171.48 413.80,171.41 412.61,170.59"/>
    </edge>
    <edge id=":1344355527_6" function="internal">
        <lane id=":1344355527_6_0" index="0" allow="pedestrian delivery bicycle" speed="5.02" length="5.02" shape="410.85,174.61 412.05,173.94 412.75,173.04 412.93,171.93 412.61,170.59"/>
    </edge>
    <edge id=":1344355527_7" function="internal">
        <lane id=":1344355527_7_0" index="0" allow="pedestrian delivery bicycle" speed="5.56" length="9.38" shape="410.85,174.61 419.63,171.31"/>
    </edge>
    <edge id=":1344355527_8" function="internal">
        <lane id=":1344355527_8_0" index="0" allow="pedestrian delivery bicycle" speed="3.65" length="4.67" shape="410.85,174.61 412.25,174.92 412.91,175.53 412.83,176.42 411.99,177.59"/>
    </edge>
    <edge id=":1660679573_0" function="internal">
        <lane id=":1660679573_0_0" index="0" allow="pedestrian delivery bicycle" speed="3.65" length="4.67" shape="130.88,409.43 129.47,409.11 128.81,408.51 128.90,407.62 129.73,406.44"/>
    </edge>
    <edge id=":1660679578_0" function="internal">
        <lane id=":1660679578_0_0" index="0" allow="pedestrian delivery bicycle" speed="6.95" length="11.28" shape="168.49,387.65 168.94,390.26 168.23,392.57 166.37,394.58 163.34,396.29"/>
    </edge>
    <edge id=":1660679578_1" function="internal">
        <lane id=":1660679578_1_0" index="0" disallow="tram rail_urban rail rail_electric rail_fast ship container cable_car subway aircraft wheelchair scooter drone" speed="4.76" length="7.96" width="5.45" shape="168.49,387.65 167.93,390.04 166.89,391.16 165.38,391.00 163.38,389.56"/>
    </edge>
    <edge id=":1660679578_2" function="internal">
        <lane id=":1660679578_2_0" index="0" allow="pedestrian delivery bicycle" speed="4.92" length="4.52" shape="162.07,393.36 163.04,392.74 163.58,391.90 163.69,390.84 163.38,389.56"/>
    </edge>
    <edge id=":1680609182_0" function="internal">
        <lane id=":1680609182_0_0" index="0" disallow="pedestrian tram rail_urban rail rail_electric rail_fast ship container cable_car subway aircraft wheelchair scooter drone" speed="13.89" length="0.30" shape="136.56,317.79 136.45,317.50"/>
    </edge>
    <edge id=":1680609182_1" function="internal">
        <lane id=":1680609182_1_0" index="0" disallow="pedestrian tram rail_urban rail rail_electric rail_fast ship container cable_car subway aircraft wheelchair scooter drone" speed="13.89" length="0.29" shape="139.43,316.34 139.54,316.61"/>
    </edge>
    <edge id=":1954396_0" function="internal">
        <lane id=":1954396_0_0" index="0" disallow="pedestrian tram rail_urban rail rail_electric rail_fast ship container cable_car subway aircraft wheelchair scooter drone" speed="5.94" length="5.52" shape="56.70,410.77 55.69,410.85 54.74,410.31 53.84,409.16 52.99,407.39"/>
    </edge>
    <edge id=":1954396_1" function="internal">
        <lane id=":1954396_1_0" index="0" disallow="tram rail_urban rail rail_electric rail_fast ship container cable_car subway aircraft wheelchair scooter drone" speed="3.65" length="4.67" shape="55.97,406.21 55.67,407.62 55.07,408.29 54.18,408.21 52.99,407.39"/>
    </edge>
    <edge id=":2064183917_0" function="internal">
        <lane id=":2064183917_0_0" index="0" allow="delivery bicycle" speed="3.62" length="2.09" shape="249.35,38.89 249.12,38.30 248.87,37.85 248.53,37.61 248.01,37.68"/>
    </edge>
    <edge id=":2064183917_1" function="internal">
        <lane id=":2064183917_1_0" index="0" disallow="pedestrian tram rail_urban rail rail_electric rail_fast ship container cable_car subway aircraft wheelchair scooter drone" speed="3.65" length="4.67" shape="249.35,38.89 249.66,37.49 250.26,36.83 251.15,36.91 252.33,37.74"/>
    </edge>
    <edge id=":2064183917_2" function="internal">
        <lane id=":2064183917_2_0" index="0" allow="delivery bicycle" speed="5.85" length="7.19" shape="246.81,34.72 248.57,34.33 250.07,34.71 251.33,35.85 252.33,37.74"/>
    </edge>
    <edge id=":2064183917_3" function="internal">
        <lane id=":2064183917_3_0" index="0" allow="pedestrian delivery bicycle" speed="3.65" length="4.67" shape="246.81,34.72 248.22,35.01 248.89,35.60 248.82,36.49 248.01,37.68"/>
    </edge>
    <edge id=":2064183918_0" function="internal">
        <lane id=":2064183918_0_0" index="0" allow="pedestrian bicycle" speed="4.59" length="4.58" width="2.00" shape="245.48,42.11 244.90,40.85 244.14,40.09 243.20,39.83 242.08,40.06"/>
    </edge>
    <edge id=":2064183918_1" function="internal">
        <lane id=":2064183918_1_0" index="0" allow="pedestrian bicycle" speed="5.56" length="8.13" width="2.00" shape="245.48,42.11 244.82,39.38 244.79,37.25 245.39,35.72 246.62,34.79"/>
    </edge>
    <edge id=":2064183918_2" function="internal">
        <lane id=":2064183918_2_0" index="0" allow="pedestrian bicycle" speed="2.89" length="2.92" width="2.00" shape="245.48,42.11 245.72,41.25 246.12,40.85 246.68,40.94 247.38,41.50"/>
    </edge>
    <edge id=":2064183918_3" function="internal">
        <lane id=":2064183918_3_0" index="0" allow="pedestrian bicycle" speed="4.76" length="4.11" width="2.00" shape="247.82,37.76 247.25,38.21 246.98,38.99 247.03,40.08 247.38,41.50"/>
    </edge>
    <edge id=":2064183918_4" function="internal">
        <lane id=":2064183918_4_0" index="0" allow="pedestrian delivery bicycle" speed="5.56" length="6.19" shape="247.82,37.76 242.08,40.06"/>
    </edge>
    <edge id=":2064183918_5" function="internal">
        <lane id=":2064183918_5_0" index="0" allow="pedestrian delivery bicycle" speed="3.65" length="4.67" shape="247.82,37.76 246.41,37.47 245.74,36.87 245.81,35.98 246.62,34.79"/>
    </edge>
    <edge id=":2064183918_6" function="internal">
        <lane id=":2064183918_6_0" index="0" allow="pedestrian delivery bicycle" speed="5.56" length="6.17" shape="240.89,37.09 246.62,34.79"/>
    </edge>
    <edge id=":2064183918_7" function="internal">
        <lane id=":2064183918_7_0" index="0" allow="pedestrian bicycle" speed="5.56" length="9.02" width="2.00" shape="240.89,37.09 242.98,36.69 244.76,37.30 246.23,38.90 247.38,41.50"/>
    </edge>
    <edge id=":2064183918_8" function="internal">
        <lane id=":2064183918_8_0" index="0" allow="pedestrian delivery bicycle" speed="3.65" length="4.67" shape="240.89,37.09 242.30,37.39 242.97,37.98 242.90,38.87 242.08,40.06"/>
    </edge>
    <edge id=":21457467_0" function="internal">
        <lane id=":21457467_0_0" index="0" disallow="tram rail_urban rail rail_electric rail_fast ship container cable_car subway aircraft wheelchair scooter drone" speed="3.65" length="1.44" shape="5.23,286.81 5.53,285.40"/>
    </edge>
    <edge id=":21457467_2" function="internal">
        <lane id=":21457467_2_0" index="0" disallow="tram rail_urban rail rail_electric rail_fast ship container cable_car subway aircraft wheelchair scooter drone" speed="3.65" length="3.23" shape="5.53,285.40 6.13,284.74 7.02,284.81 8.21,285.63"/>
    </edge>
    <edge id=":21457467_1" function="internal">
        <lane id=":21457467_1_0" index="0" disallow="tram rail_urban rail rail_electric rail_fast ship container cable_car subway aircraft wheelchair scooter drone" speed="6.66" length="8.29" shape="11.74,279.27 9.55,280.43 8.23,281.88 7.78,283.61 8.21,285.63"/>
    </edge>
    <edge id=":21457470_0" function="internal">
        <lane id=":21457470_0_0" index="0" disallow="pedestrian tram rail_urban rail rail_electric rail_fast ship container cable_car subway aircraft wheelchair scooter drone" speed="6.31" length="7.28" width="8.50" shape="61.89,414.94 60.80,412.67 59.60,411.21 58.30,410.55 56.88,410.70"/>
    </edge>
    <edge id=":21457470_1" function="internal">
        <lane id=":21457470_1_0" index="0" disallow="pedestrian tram rail_urban rail rail_electric rail_fast ship container cable_car subway aircraft wheelchair scooter drone" speed="13.89" length="10.36" width="8.50" shape="66.57,407.03 56.88,410.70"/>
    </edge>
    <edge id=":2830356233_0" function="internal">
        <lane id=":2830356233_0_0" index="0" disallow="tram rail_urban rail rail_electric rail_fast ship container cable_car subway aircraft wheelchair scooter drone" speed="13.89" length="5.09" shape="51.45,102.63 49.61,97.88"/>
    </edge>
    <edge id=":2830356233_1" function="internal">
        <lane id=":2830356233_1_0" index="0" disallow="tram rail_urban rail rail_electric rail_fast ship container cable_car subway aircraft wheelchair scooter drone" speed="13.89" length="5.03" shape="52.60,96.76 54.42,101.45"/>
    </edge>
    <edge id=":2836367309_0" function="internal">
        <lane id=":2836367309_0_0" index="0" allow="pedestrian delivery bicycle" speed="3.65" length="4.67" shape="93.89,362.33 94.20,360.92 94.79,360.26 95.69,360.33 96.87,361.16"/>
    </edge>
    <edge id=":2838593983_0" function="internal">
        <lane id=":2838593983_0_0" index="0" allow="pedestrian delivery bicycle" speed="3.65" length="4.67" shape="123.52,357.24 123.84,355.83 124.44,355.17 125.33,355.26 126.51,356.10"/>
    </edge>
    <edge id=":2898180074_0" function="internal">
        <lane id=":2898180074_0_0" index="0" disallow="tram rail_urban rail rail_electric rail_fast ship container cable_car subway aircraft wheelchair scooter drone" speed="13.89" length="4.97" shape="230.09,72.56 234.75,70.80"/>
        <lane id=":2898180074_0_1" index="1" disallow="tram rail_urban rail rail_electric rail_fast ship container cable_car subway aircraft wheelchair scooter drone" speed="13.89" length="4.97" shape="231.24,75.55 235.87,73.80"/>
    </edge>
    <edge id=":2898180075_0" function="internal">
        <lane id=":2898180075_0_0" index="0" allow="pedestrian delivery bicycle" speed="5.56" length="4.99" shape="225.66,46.62 221.02,48.46"/>
    </edge>
    <edge id=":2898180075_1" function="internal">
        <lane id=":2898180075_1_0" index="0" allow="pedestrian delivery bicycle" speed="3.65" length="1.44" shape="225.66,46.62 224.25,46.32"/>
    </edge>
    <edge id=":2898180075_4" function="internal">
        <lane id=":2898180075_4_0" index="0" allow="pedestrian delivery bicycle" speed="3.65" length="3.23" shape="224.25,46.32 223.58,45.73 223.66,44.84 224.48,43.65"/>
    </edge>
    <edge id=":2898180075_2" function="internal">
        <lane id=":2898180075_2_0" index="0" allow="pedestrian delivery bicycle" speed="5.56" length="4.98" shape="219.84,45.49 224.48,43.65"/>
    </edge>
    <edge id=":2898180075_3" function="internal">
        <lane id=":2898180075_3_0" index="0" allow="pedestrian delivery bicycle" speed="3.65" length="1.44" shape="219.84,45.49 221.25,45.79"/>
    </edge>
    <edge id=":2898180075_5" function="internal">
        <lane id=":2898180075_5_0" index="0" allow="pedestrian delivery bicycle" speed="3.65" length="3.23" shape="221.25,45.79 221.92,46.39 221.84,47.28 221.02,48.46"/>
    </edge>
    <edge id=":2898180076_0" function="internal">
        <lane id=":2898180076_0_0" index="0" allow="pedestrian delivery bicycle" speed="5.56" length="5.00" shape="212.89,193.63 211.07,188.97"/>
    </edge>
    <edge id=":2898180076_1" function="internal">
        <lane id=":2898180076_1_0" index="0" allow="pedestrian delivery bicycle" speed="3.65" length="4.67" shape="212.89,193.63 213.20,192.22 213.80,191.55 214.69,191.64 215.87,192.46"/>
    </edge>
    <edge id=":2898180076_2" function="internal">
        <lane id=":2898180076_2_0" index="0" allow="pedestrian delivery bicycle" speed="5.56" length="5.00" shape="214.05,187.80 215.87,192.46"/>
    </edge>
    <edge id=":2898180076_3" function="internal">
        <lane id=":2898180076_3_0" index="0" allow="pedestrian delivery bicycle" speed="3.65" length="4.67" shape="214.05,187.80 213.74,189.21 213.14,189.88 212.25,189.80 211.07,188.97"/>
    </edge>
    <edge id=":2898180085_0" function="internal">
        <lane id=":2898180085_0_0" index="0" allow="pedestrian delivery bicycle" speed="5.56" length="9.42" shape="196.08,150.68 192.66,141.90"/>
    </edge>
    <edge id=":2898180085_1" function="internal">
        <lane id=":2898180085_1_0" index="0" allow="pedestrian delivery bicycle" speed="5.56" length="10.17" shape="196.08,150.68 195.44,147.98 195.83,145.71 197.23,143.89 199.66,142.51"/>
    </edge>
    <edge id=":2898180085_2" function="internal">
        <lane id=":2898180085_2_0" index="0" allow="pedestrian delivery bicycle" speed="3.65" length="4.67" shape="196.08,150.68 196.39,149.28 196.99,148.61 197.88,148.69 199.06,149.52"/>
    </edge>
    <edge id=":2898180085_3" function="internal">
        <lane id=":2898180085_3_0" index="0" allow="pedestrian delivery bicycle" speed="5.05" length="5.01" shape="200.83,145.49 199.63,146.17 198.94,147.07 198.75,148.18 199.06,149.52"/>
    </edge>
    <edge id=":2898180085_4" function="internal">
        <lane id=":2898180085_4_0" index="0" allow="pedestrian delivery bicycle" speed="5.56" length="10.19" shape="200.83,145.49 198.11,146.14 195.85,145.75 194.03,144.34 192.66,141.90"/>
    </edge>
    <edge id=":2898180085_5" function="internal">
        <lane id=":2898180085_5_0" index="0" allow="pedestrian delivery bicycle" speed="3.65" length="4.67" shape="200.83,145.49 199.42,145.19 198.76,144.59 198.84,143.70 199.66,142.51"/>
    </edge>
    <edge id=":2898180085_6" function="internal">
        <lane id=":2898180085_6_0" index="0" allow="pedestrian delivery bicycle" speed="5.03" length="5.01" shape="195.65,140.75 196.32,141.95 197.21,142.64 198.33,142.83 199.66,142.51"/>
    </edge>
    <edge id=":2898180085_7" function="internal">
        <lane id=":2898180085_7_0" index="0" allow="pedestrian delivery bicycle" speed="5.56" length="9.41" shape="195.65,140.75 199.06,149.52"/>
    </edge>
    <edge id=":2898180085_8" function="internal">
        <lane id=":2898180085_8_0" index="0" allow="pedestrian delivery bicycle" speed="3.65" length="4.67" shape="195.65,140.75 195.34,142.16 194.73,142.82 193.84,142.73 192.66,141.90"/>
    </edge>
    <edge id=":2898180088_0" function="internal">
        <lane id=":2898180088_0_0" index="0" allow="pedestrian delivery bicycle" speed="5.09" length="5.06" shape="188.54,131.22 187.87,130.03 186.96,129.34 185.82,129.15 184.45,129.45"/>
    </edge>
    <edge id=":2898180088_1" function="internal">