<?xml version="1.0" encoding="UTF-8"?>

<!-- generated on 2024-09-04 10:43:56.192145 by randomTrips.py v1_20_0+0002-343658e7c64
<configuration>
    <net-file value="osm.net.xml.gz"/>
    <output-trip-file value="osm.passenger.trips.xml"/>
    <route-file value="osm.passenger.rou.xml"/>
    <prefix value="veh"/>
    <trip-attributes value="departLane=&quot;best&quot;"/>
    <fringe-start-attributes value="departSpeed=&quot;max&quot;"/>
    <vehicle-class value="passenger"/>
    <lanes value="True"/>
    <fringe-factor value="50"/>
    <allow-fringe.min-length value="1000.0"/>
    <via-edge-types value="highway.motorway,highway.motorway_link,highway.trunk_link,highway.primary_link,highway.secondary_link,highway.tertiary_link"/>
    <min-distance value="300.0"/>
    <min-distance.fringe value="10.0"/>
    <remove-loops value="True"/>
    <validate value="True"/>
    <insertion-density value="1100.0"/>
</configuration>
-->

<!-- generated on 2024-09-04 10:43:55 by Eclipse SUMO duarouter Version 1.20.0
<configuration xmlns:xsi="http://www.w3.org/2001/XMLSchema-instance" xsi:noNamespaceSchemaLocation="http://sumo.dlr.de/xsd/duarouterConfiguration.xsd">

    <input>
        <net-file value="osm.net.xml.gz"/>
        <route-files value="osm.passenger.trips.xml"/>
    </input>

    <output>
        <output-file value="osm.passenger.rou.xml"/>
        <alternatives-output value="NUL"/>
    </output>

    <processing>
        <remove-loops value="true"/>
    </processing>

    <time>
        <begin value="0.0"/>
        <end value="3600.0"/>
    </time>

    <report>
        <no-warnings value="true"/>
        <ignore-errors value="true"/>
        <no-step-log value="true"/>
    </report>

</configuration>
-->

<routes xmlns:xsi="http://www.w3.org/2001/XMLSchema-instance" xsi:noNamespaceSchemaLocation="http://sumo.dlr.de/xsd/routes_file.xsd">
    <vType id="veh_passenger" vClass="passenger"/>
    <vehicle id="veh1" type="veh_passenger" depart="1.37" departLane="best" departSpeed="max">
        <route edges="-51508352#2 -51508352#1 -51476080#6 -51476080#5 -51476080#4 -51476080#3 -51476080#2 -51476080#1 362368395#2"/>
    </vehicle>
    <vehicle id="veh3" type="veh_passenger" depart="4.12" departLane="best" departSpeed="max">
        <route edges="-51508352#2 -51508352#1 -51476080#6 -51476080#5 -51476080#4 -51476080#3 -51476080#2 -51476080#1 362368395#2"/>
    </vehicle>
    <vehicle id="veh4" type="veh_passenger" depart="5.49" departLane="best" departSpeed="max">
        <route edges="376401312#0 149935566#1 149935566#2 58561800#1 58561799#0 58561799#1 -943542797#0 -392103887 -40317922#4 -40317922#3 -40317922#2 -40317922#1 -27222779#2 -27222779#1 -27222779#0"/>
    </vehicle>
    <vehicle id="veh5" type="veh_passenger" depart="6.86" departLane="best" departSpeed="max">
        <route edges="376401312#0 149935566#1 149935566#2 58561800#1 58561799#0 58561799#1 147557400#1 147557400#3 147557400#4 147557400#5 4645391#0"/>
    </vehicle>
    <vehicle id="veh6" type="veh_passenger" depart="8.24" departLane="best" departSpeed="max">
        <route edges="27222779#0 27222779#1 27222779#2 40317922#1 40317922#2 4645392#1 4645392#3 -4645391#2 -4645391#1 -4645391#0"/>
    </vehicle>
    <vehicle id="veh7" type="veh_passenger" depart="9.61" departLane="best" departSpeed="max">
        <route edges="-51508352#2 -51508352#1 149935566#1 149935566#2 58561800#1 58561799#0 58561799#1 -943542797#0 -392103887 -40317922#4 -40317922#3 -40317922#2 -40317922#1 -27222779#2 -27222779#1 -27222779#0"/>
    </vehicle>
    <vehicle id="veh8" type="veh_passenger" depart="10.98" departLane="best" departSpeed="max">
        <route edges="376401312#0 149935566#1 149935566#2 58561800#1 58561799#0 58561799#1 147557400#1 147557400#3 147557400#4 147557400#5 4645391#0 4645391#1 4645391#2"/>
    </vehicle>
    <vehicle id="veh9" type="veh_passenger" depart="12.35" departLane="best" departSpeed="max">
        <route edges="27222779#0 27222779#1 27222779#2 40317927#1 943540703#0 943540703#1 943540703#2 943540702#0 943540702#1 362368395#2"/>
    </vehicle>
    <vehicle id="veh10" type="veh_passenger" depart="13.73" departLane="best" departSpeed="max">
        <route edges="376401312#0 149935566#1 149935566#2 58561800#1 58561799#0 58561799#1 -943542797#0 -392103887 -40317922#4 -40317922#3 -40317922#2 -40317922#1 -27222779#2 -27222779#1 -27222779#0"/>
    </vehicle>
    <vehicle id="veh11" type="veh_passenger" depart="15.10" departLane="best" departSpeed="max">
        <route edges="-51508352#2 -51508352#1 149935566#1 149935566#2 58561800#1 58561799#0 58561799#1 -943542797#0 -392103887 -40317922#4 -40317922#3 4645392#1 4645392#3 -4645391#2 -4645391#1 -4645391#0"/>
    </vehicle>
    <vehicle id="veh13" type="veh_passenger" depart="17.85" departLane="best" departSpeed="max">
        <route edges="27222779#0 27222779#1 27222779#2 40317922#1 40317922#2 4645392#1 4645392#3 -4645391#2 -4645391#1 -4645391#0"/>
    </vehicle>
    <vehicle id="veh15" type="veh_passenger" depart="20.59" departLane="best" departSpeed="max">
        <route edges="-51508352#2 -51508352#1 149935566#1 149935566#2 58561800#1 58561799#0 58561799#1 147557400#1 147557400#3 147557400#4 147557400#5 4645391#0 4645391#1 4645391#2"/>
    </vehicle>
    <vehicle id="veh16" type="veh_passenger" depart="21.96" departLane="best" departSpeed="max">
        <route edges="376401312#0 149935566#1 149935566#2 58561800#1 58561799#0 58561799#1 147557400#1 147557400#3 147557400#4 147557400#5 4645391#0 4645391#1 4645391#2"/>
    </vehicle>
    <vehicle id="veh17" type="veh_passenger" depart="23.34" departLane="best" departSpeed="max">
        <route edges="-51508352#2 -51508352#1 149935566#1 149935566#2 58561800#1 58561799#0 58561799#1 -943542797#0 -392103887 -40317922#4 -40317922#3 -40317922#2 -40317922#1 -27222779#2 -27222779#1 -27222779#0"/>
    </vehicle>
    <vehicle id="veh21" type="veh_passenger" depart="28.83" departLane="best" departSpeed="max">
        <route edges="27222779#0 27222779#1 27222779#2 40317922#1 40317922#2 4645392#1 4645392#3 -4645391#2 -4645391#1 -4645391#0"/>
    </vehicle>
    <vehicle id="veh22" type="veh_passenger" depart="30.20" departLane="best">
        <route edges="-943542797#0 -392103887 -40317922#4 -40317922#3 -40317922#2 -40317922#1 40317927#1 943540703#0 943540703#1 943540703#2 943540702#0 943540702#1 362368395#2"/>
    </vehicle>
    <vehicle id="veh23" type="veh_passenger" depart="31.57" departLane="best" departSpeed="max">
        <route edges="-51508352#2 -51508352#1 149935566#1 149935566#2 58561800#1 58561799#0 58561799#1 -943542797#0 -392103887 -40317922#4 -40317922#3 -40317922#2 -40317922#1 -27222779#2 -27222779#1 -27222779#0"/>
    </vehicle>
    <vehicle id="veh24" type="veh_passenger" depart="32.95" departLane="best" departSpeed="max">
        <route edges="-51508352#2 -51508352#1 -51476080#6 -51476080#5 -51476080#4 -51476080#3 -51476080#2 -51476080#1 362368395#2"/>
    </vehicle>
    <vehicle id="veh25" type="veh_passenger" depart="34.32" departLane="best">
        <route edges="-943542797#0 -392103887 -40317922#4 -40317922#3 -40317922#2 -40317922#1 40317927#1 943540703#0 943540703#1 943540703#2 943540702#0 943540702#1 362368395#2"/>
    </vehicle>
    <vehicle id="veh26" type="veh_passenger" depart="35.69" departLane="best">
        <route edges="943540702#0 943540702#1 51476080#1 51476080#2 51476080#3 51476080#4 51476080#5 51476080#6 51508352#1 51508352#2"/>
    </vehicle>
    <vehicle id="veh28" type="veh_passenger" depart="38.44" departLane="best">
        <route edges="134941607#1 40317927#1 943540703#0 943540703#1 943540703#2 943540702#0 943540702#1 362368395#2"/>
    </vehicle>
    <vehicle id="veh29" type="veh_passenger" depart="39.81" departLane="best" departSpeed="max">
        <route edges="-51508352#2 -51508352#1 149935566#1 149935566#2 58561800#1 58561799#0 58561799#1 -943542797#0 -392103887 -40317922#4 -40317922#3 -40317922#2 -40317922#1 -27222779#2"/>
    </vehicle>
    <vehicle id="veh30" type="veh_passenger" depart="41.18" departLane="best" departSpeed="max">
        <route edges="27222779#0 27222779#1 27222779#2 40317927#1 943540703#0 943540703#1 943540703#2 943540702#0 943540702#1 51476080#1 51476080#2 51476080#3 51476080#4 51476080#5 51476080#6 51508352#1 51508352#2"/>
    </vehicle>
    <vehicle id="veh31" type="veh_passenger" depart="42.55" departLane="best" departSpeed="max">
        <route edges="376401312#0 149935566#1 149935566#2 58561800#1 58561799#0 58561799#1 -943542797#0 -392103887 -40317922#4 -40317922#3 4645392#1 4645392#3 -4645391#2 -4645391#1"/>
    </vehicle>
    <vehicle id="veh33" type="veh_passenger" depart="45.30" departLane="best" departSpeed="max">
        <route edges="27222779#0 27222779#1 27222779#2 40317927#1 943540703#0 943540703#1 943540703#2 943540702#0 943540702#1 362368395#2"/>
    </vehicle>
    <vehicle id="veh34" type="veh_passenger" depart="46.67" departLane="best">
        <route edges="27222779#1 27222779#2 40317927#1 943540703#0 943540703#1 943540703#2 943540702#0 943540702#1 51476080#1 51476080#2 51476080#3 51476080#4 51476080#5 51476080#6 51508352#1 134929400#1"/>
    </vehicle>
    <vehicle id="veh35" type="veh_passenger" depart="48.05" departLane="best">
        <route edges="-40317922#1 40317927#1 943540703#0 943540703#1 943540703#2 943540702#0 943540702#1 51476080#1 51476080#2 51476080#3 51476080#4 51476080#5 51476080#6 51508352#1 51508352#2"/>
    </vehicle>
    <vehicle id="veh36" type="veh_passenger" depart="49.42" departLane="best" departSpeed="max">
        <route edges="-51508352#2 -51508352#1 -51476080#6 -51476080#5 -51476080#4 -51476080#3 -51476080#2 -51476080#1 362368395#2"/>
    </vehicle>
    <vehicle id="veh37" type="veh_passenger" depart="50.79" departLane="best" departSpeed="max">
        <route edges="-51508352#2 -51508352#1 149935566#1 149935566#2 58561800#1 58561799#0 58561799#1 147557400#1 147557400#3 147557400#4 147557400#5 4645391#0 4645391#1 4645391#2"/>
    </vehicle>
    <vehicle id="veh38" type="veh_passenger" depart="52.16" departLane="best" departSpeed="max">
        <route edges="27222779#0 27222779#1 27222779#2 40317927#1 943540703#0 943540703#1 943540703#2 943540702#0 943540702#1 362368395#2"/>
    </vehicle>
    <vehicle id="veh39" type="veh_passenger" depart="53.54" departLane="best">
        <route edges="134941607#1 40317927#1 943540703#0 943540703#1 943540703#2 943540702#0 943540702#1 51476080#1 51476080#2 51476080#3 51476080#4 51476080#5 51476080#6 51508352#1 51508352#2"/>
    </vehicle>
    <vehicle id="veh40" type="veh_passenger" depart="54.91" departLane="best" departSpeed="max">
        <route edges="27222779#0 27222779#1 27222779#2 40317922#1 40317922#2 4645392#1 4645392#3 -4645391#2 -4645391#1 -4645391#0"/>
    </vehicle>
    <vehicle id="veh41" type="veh_passenger" depart="56.28" departLane="best">
        <route edges="-943542797#0 -392103887 -40317922#4 -40317922#3 -40317922#2 -40317922#1 40317927#1 943540703#0 943540703#1 943540703#2 943540702#0 943540702#1 362368395#2"/>
    </vehicle>
    <vehicle id="veh42" type="veh_passenger" depart="57.65" departLane="best" departSpeed="max">
        <route edges="27222779#0 27222779#1 27222779#2 40317927#1 943540703#0 943540703#1 943540703#2 943540702#0 943540702#1 362368395#2"/>
    </vehicle>
    <vehicle id="veh43" type="veh_passenger" depart="59.03" departLane="best" departSpeed="max">
        <route edges="-51508352#2 -51508352#1 149935566#1 149935566#2 58561800#1 58561799#0 58561799#1 -943542797#0 -392103887 -40317922#4 -40317922#3 4645392#1 4645392#3 -4645391#2 -4645391#1 -4645391#0"/>
    </vehicle>
    <vehicle id="veh44" type="veh_passenger" depart="60.40" departLane="best" departSpeed="max">
        <route edges="27222779#0 27222779#1 27222779#2 40317927#1 943540703#0 943540703#1 943540703#2 943540702#0 943540702#1 362368395#2"/>
    </vehicle>
    <vehicle id="veh45" type="veh_passenger" depart="61.77" departLane="best" departSpeed="max">
        <route edges="-51508352#2 -51508352#1 149935566#1 149935566#2 58561800#1 58561799#0 58561799#1 -943542797#0 -392103887 -40317922#4 -40317922#3 4645392#1 4645392#3 -4645391#2 -4645391#1 -4645391#0"/>
    </vehicle>
    <vehicle id="veh46" type="veh_passenger" depart="63.15" departLane="best" departSpeed="max">
        <route edges="-51508352#2 -51508352#1 -51476080#6 -51476080#5 -51476080#4 -51476080#3 -51476080#2 -51476080#1 362368395#2"/>
    </vehicle>
    <vehicle id="veh47" type="veh_passenger" depart="64.52" departLane="best" departSpeed="max">
        <route edges="376401312#0 149935566#1 149935566#2 58561800#1 58561799#0 58561799#1 -943542797#0 -392103887 -40317922#4 -40317922#3 -40317922#2 -40317922#1 -27222779#2 -27222779#1 -27222779#0"/>
    </vehicle>
    <vehicle id="veh48" type="veh_passenger" depart="65.89" departLane="best" departSpeed="max">
        <route edges="-51508352#2 -51508352#1 -51476080#6 -51476080#5 -51476080#4 -51476080#3 -51476080#2 -51476080#1 362368395#2"/>
    </vehicle>
    <vehicle id="veh49" type="veh_passenger" depart="67.26" departLane="best" departSpeed="max">
        <route edges="-51508352#2 -51508352#1 149935566#1 149935566#2 58561800#1 58561799#0 58561799#1 -943542797#0 -392103887 -40317922#4 -40317922#3 -40317922#2 -40317922#1"/>
    </vehicle>
    <vehicle id="veh50" type="veh_passenger" depart="68.64" departLane="best" departSpeed="max">
        <route edges="376401312#0 149935566#1 149935566#2 58561800#1 58561799#0 58561799#1 -943542797#0 -392103887 -40317922#4 -40317922#3 4645392#1 4645392#3 -4645391#2 -4645391#1 -4645391#0"/>
    </vehicle>
    <vehicle id="veh51" type="veh_passenger" depart="70.01" departLane="best" departSpeed="max">
        <route edges="-51508352#2 -51508352#1 149935566#1 149935566#2 58561800#1 58561799#0 58561799#1 -943542797#0 -392103887 -40317922#4 -40317922#3 -40317922#2 -40317922#1 -27222779#2 -27222779#1"/>
    </vehicle>
    <vehicle id="veh52" type="veh_passenger" depart="71.38" departLane="best" departSpeed="max">
        <route edges="27222779#0 27222779#1 27222779#2 40317927#1 943540703#0 943540703#1 943540703#2 943540702#0 943540702#1 362368395#2"/>
    </vehicle>
    <vehicle id="veh53" type="veh_passenger" depart="72.75" departLane="best" departSpeed="max">
        <route edges="27222779#0 27222779#1 27222779#2 40317927#1 943540703#0 943540703#1 943540703#2 943540702#0 943540702#1 51476080#1 51476080#2 51476080#3 51476080#4 51476080#5 51476080#6 51508352#1 134929400#1"/>
    </vehicle>
    <vehicle id="veh54" type="veh_passenger" depart="74.13" departLane="best" departSpeed="max">
        <route edges="376401312#0 149935566#1 149935566#2 58561800#1 58561799#0 58561799#1 -943542797#0 -392103887 -40317922#4 -40317922#3 4645392#1 4645392#3 -4645391#2 -4645391#1 -4645391#0"/>
    </vehicle>
    <vehicle id="veh55" type="veh_passenger" depart="75.50" departLane="best" departSpeed="max">
        <route edges="-51508352#2 -51508352#1 -51476080#6 -51476080#5 -51476080#4 -51476080#3 -51476080#2 -51476080#1 362368395#2"/>
    </vehicle>
    <vehicle id="veh56" type="veh_passenger" depart="76.87" departLane="best" departSpeed="max">
        <route edges="27222779#0 27222779#1 27222779#2 40317927#1 943540703#0 943540703#1 943540703#2 943540702#0 943540702#1 51476080#1 51476080#2 51476080#3 51476080#4 51476080#5"/>
    </vehicle>
    <vehicle id="veh57" type="veh_passenger" depart="78.24" departLane="best" departSpeed="max">
        <route edges="27222779#0 27222779#1 27222779#2 40317927#1 943540703#0 943540703#1 943540703#2 943540702#0 943540702#1 51476080#1 51476080#2 51476080#3 51476080#4 51476080#5 51476080#6 51508352#1 51508352#2"/>
    </vehicle>
    <vehicle id="veh59" type="veh_passenger" depart="80.99" departLane="best">
        <route edges="943540702#0 943540702#1 51476080#1 51476080#2 51476080#3 51476080#4 51476080#5 51476080#6 51508352#1 51508352#2"/>
    </vehicle>
    <vehicle id="veh60" type="veh_passenger" depart="82.36" departLane="best" departSpeed="max">
        <route edges="376401312#0 149935566#1 149935566#2 58561800#1 58561799#0 58561799#1 -943542797#0 -392103887 -40317922#4 -40317922#3 4645392#1 4645392#3 -4645391#2 -4645391#1 -4645391#0"/>
    </vehicle>
    <vehicle id="veh61" type="veh_passenger" depart="83.74" departLane="best">
        <route edges="27222779#1 27222779#2 40317922#1 40317922#2 4645392#1 4645392#3 -4645391#2 -4645391#1 -4645391#0"/>
    </vehicle>
    <vehicle id="veh62" type="veh_passenger" depart="85.11" departLane="best" departSpeed="max">
        <route edges="27222779#0 27222779#1 27222779#2 40317927#1 943540703#0 943540703#1 943540703#2 943540702#0 943540702#1 51476080#1 51476080#2 51476080#3 51476080#4 51476080#5 51476080#6 149935566#1"/>
    </vehicle>
    <vehicle id="veh64" type="veh_passenger" depart="87.85" departLane="best" departSpeed="max">
        <route edges="-51508352#2 -51508352#1 149935566#1 149935566#2 58561800#1 58561799#0 58561799#1 -943542797#0 -392103887 -40317922#4 -40317922#3 4645392#1 4645392#3 -4645391#2 -4645391#1 -4645391#0"/>
    </vehicle>
    <vehicle id="veh66" type="veh_passenger" depart="90.60" departLane="best" departSpeed="max">
        <route edges="-51508352#2 -51508352#1 149935566#1 149935566#2 58561800#1 58561799#0 58561799#1 -943542797#0 -392103887 -40317922#4 -40317922#3 -40317922#2 -40317922#1 -27222779#2 -27222779#1 -27222779#0"/>
    </vehicle>
    <vehicle id="veh68" type="veh_passenger" depart="93.34" departLane="best" departSpeed="max">
        <route edges="27222779#0 27222779#1 27222779#2 40317927#1 943540703#0 943540703#1 943540703#2 943540702#0 943540702#1 362368395#2"/>
    </vehicle>
    <vehicle id="veh70" type="veh_passenger" depart="96.09" departLane="best" departSpeed="max">
        <route edges="-51508352#2 -51508352#1 149935566#1 149935566#2 58561800#1 58561799#0 58561799#1 147557400#1 147557400#3 147557400#4 147557400#5 4645391#0 4645391#1 4645391#2"/>
    </vehicle>
    <vehicle id="veh72" type="veh_passenger" depart="98.84" departLane="best" departSpeed="max">
        <route edges="-51508352#2 -51508352#1 -51476080#6 -51476080#5 -51476080#4 -51476080#3 -51476080#2 -51476080#1 362368395#2"/>
    </vehicle>
    <vehicle id="veh73" type="veh_passenger" depart="100.21" departLane="best" departSpeed="max">
        <route edges="-51508352#2 -51508352#1 149935566#1 149935566#2 58561800#1 58561799#0 58561799#1 -943542797#0 -392103887 -40317922#4 -40317922#3 4645392#1 4645392#3 -4645391#2 -4645391#1 -4645391#0"/>
    </vehicle>
    <vehicle id="veh74" type="veh_passenger" depart="101.58" departLane="best">
        <route edges="134941607#1 40317927#1 943540703#0 943540703#1 943540703#2 943540702#0 943540702#1 51476080#1 51476080#2 51476080#3 51476080#4 51476080#5 51476080#6 51508352#1 51508352#2"/>
    </vehicle>
    <vehicle id="veh75" type="veh_passenger" depart="102.95" departLane="best" departSpeed="max">
        <route edges="27222779#0 27222779#1 27222779#2 40317922#1 40317922#2 4645392#1 4645392#3 -4645391#2 -4645391#1 -4645391#0"/>
    </vehicle>
    <vehicle id="veh76" type="veh_passenger" depart="104.33" departLane="best" departSpeed="max">
        <route edges="376401312#0 149935566#1 149935566#2 58561800#1 58561799#0 58561799#1 147557400#1 147557400#3 147557400#4 147557400#5 4645391#0 4645391#1 4645391#2"/>
    </vehicle>
    <vehicle id="veh80" type="veh_passenger" depart="109.82" departLane="best" departSpeed="max">
        <route edges="-51508352#2 -51508352#1 149935566#1 149935566#2 58561800#1 58561799#0 58561799#1 -943542797#0 -392103887 -40317922#4 -40317922#3 -40317922#2 -40317922#1 -27222779#2 -27222779#1 -27222779#0"/>
    </vehicle>
    <vehicle id="veh81" type="veh_passenger" depart="111.19" departLane="best" departSpeed="max">
        <route edges="-51508352#2 -51508352#1 -51476080#6 -51476080#5 -51476080#4 -51476080#3 -51476080#2 -51476080#1 362368395#2"/>
    </vehicle>
    <vehicle id="veh83" type="veh_passenger" depart="113.94" departLane="best" departSpeed="max">
        <route edges="376401312#0 149935566#1 149935566#2 58561800#1 58561799#0 58561799#1 -943542797#0 -392103887 -40317922#4 -40317922#3 4645392#1 4645392#3 -4645391#2 -4645391#1 -4645391#0"/>
    </vehicle>
    <vehicle id="veh84" type="veh_passenger" depart="115.31" departLane="best">
        <route edges="27222779#1 27222779#2 40317927#1 943540703#0 943540703#1 943540703#2 943540702#0 943540702#1 51476080#1 51476080#2 51476080#3 51476080#4 51476080#5 51476080#6 51508352#1 51508352#2"/>
    </vehicle>
    <vehicle id="veh85" type="veh_passenger" depart="116.68" departLane="best" departSpeed="max">
        <route edges="376401312#0 149935566#1 149935566#2 58561800#1 58561799#0 58561799#1 -943542797#0 -392103887 -40317922#4 -40317922#3 -40317922#2 -40317922#1 -27222779#2 -27222779#1 -27222779#0"/>
    </vehicle>
    <vehicle id="veh86" type="veh_passenger" depart="118.05" departLane="best" departSpeed="max">
        <route edges="27222779#0 27222779#1 27222779#2 40317927#1 943540703#0 943540703#1 943540703#2 943540702#0 943540702#1 51476080#1 51476080#2 51476080#3 51476080#4 51476080#5"/>
    </vehicle>
    <vehicle id="veh88" type="veh_passenger" depart="120.80" departLane="best" departSpeed="max">
        <route edges="27222779#0 27222779#1 27222779#2 40317927#1 943540703#0 943540703#1 943540703#2 943540702#0 943540702#1 51476080#1 51476080#2 51476080#3 51476080#4 51476080#5 51476080#6 51508352#1 51508352#2"/>
    </vehicle>
    <vehicle id="veh89" type="veh_passenger" depart="122.17" departLane="best" departSpeed="max">
        <route edges="-51508352#2 -51508352#1 149935566#1 149935566#2 58561800#1 58561799#0 58561799#1 -943542797#0 -392103887 -40317922#4 -40317922#3 -40317922#2 -40317922#1 -27222779#2 -27222779#1 -27222779#0"/>
    </vehicle>
    <vehicle id="veh90" type="veh_passenger" depart="123.54" departLane="best" departSpeed="max">
        <route edges="27222779#0 27222779#1 27222779#2 40317927#1 943540703#0 943540703#1 943540703#2 943540702#0 943540702#1 362368395#2"/>
    </vehicle>
    <vehicle id="veh91" type="veh_passenger" depart="124.92" departLane="best" departSpeed="max">
        <route edges="27222779#0 27222779#1 27222779#2 40317927#1 943540703#0 943540703#1 943540703#2 943540702#0 943540702#1 51476080#1 51476080#2 51476080#3 51476080#4 51476080#5 51476080#6 51508352#1 51508352#2"/>
    </vehicle>
    <vehicle id="veh92" type="veh_passenger" depart="126.29" departLane="best" departSpeed="max">
        <route edges="376401312#0 149935566#1 149935566#2 58561800#1 58561799#0 58561799#1 -943542797#0 -392103887 -40317922#4 -40317922#3 4645392#1 4645392#3 -4645391#2"/>
    </vehicle>
    <vehicle id="veh93" type="veh_passenger" depart="127.66" departLane="best" departSpeed="max">
        <route edges="376401312#0 149935566#1 149935566#2 58561800#1 58561799#0 58561799#1 -943542797#0 -392103887 -40317922#4 -40317922#3 -40317922#2 -40317922#1 -27222779#2 -27222779#1 -27222779#0"/>
    </vehicle>
    <vehicle id="veh94" type="veh_passenger" depart="129.04" departLane="best" departSpeed="max">
        <route edges="-51508352#2 -51508352#1 149935566#1 149935566#2 58561800#1 58561799#0 58561799#1 147557400#1 147557400#3 147557400#4 147557400#5 4645391#0 4645391#1 4645391#2"/>
    </vehicle>
    <vehicle id="veh95" type="veh_passenger" depart="130.41" departLane="best" departSpeed="max">
        <route edges="27222779#0 27222779#1 27222779#2 40317927#1 943540703#0 943540703#1 943540703#2 943540702#0 943540702#1 51476080#1 51476080#2 51476080#3 51476080#4 51476080#5 51476080#6 51508352#1 134929400#1"/>
    </vehicle>
    <vehicle id="veh96" type="veh_passenger" depart="131.78" departLane="best" departSpeed="max">
        <route edges="376401312#0 149935566#1 149935566#2 58561800#1 58561799#0 58561799#1 -943542797#0 -392103887 -40317922#4 -40317922#3 4645392#1 4645392#3 -4645391#2 -4645391#1 -4645391#0"/>
    </vehicle>
    <vehicle id="veh97" type="veh_passenger" depart="133.15" departLane="best" departSpeed="max">
        <route edges="27222779#0 27222779#1 27222779#2 40317927#1 943540703#0 943540703#1 943540703#2 943540702#0 943540702#1 51476080#1 51476080#2 51476080#3 51476080#4 51476080#5 51476080#6 51508352#1 51508352#2"/>
    </vehicle>
    <vehicle id="veh99" type="veh_passenger" depart="135.90" departLane="best">
        <route edges="51476080#6 149935566#1 149935566#2 58561800#1 58561799#0 58561799#1 -943542797#0 -392103887 -40317922#4 -40317922#3 -40317922#2 -40317922#1 -27222779#2 -27222779#1 -27222779#0"/>
    </vehicle>
    <vehicle id="veh100" type="veh_passenger" depart="137.27" departLane="best">
        <route edges="943540702#0 943540702#1 51476080#1 51476080#2 51476080#3 51476080#4 51476080#5 51476080#6 149935566#1 149935566#2 58561800#1 58561799#0 58561799#1 -943542797#0 -392103887 -40317922#4 -40317922#3 4645392#1 4645392#3 -4645391#2 -4645391#1 -4645391#0"/>
    </vehicle>
    <vehicle id="veh101" type="veh_passenger" depart="138.64" departLane="best" departSpeed="max">
        <route edges="-51508352#2 -51508352#1 149935566#1 149935566#2 58561800#1 58561799#0 58561799#1 -943542797#0 -392103887 -40317922#4 -40317922#3 -40317922#2 -40317922#1 -27222779#2"/>
    </vehicle>
    <vehicle id="veh103" type="veh_passenger" depart="141.39" departLane="best" departSpeed="max">
        <route edges="27222779#0 27222779#1 27222779#2 40317927#1 943540703#0 943540703#1 943540703#2 943540702#0 943540702#1 362368395#2"/>
    </vehicle>
    <vehicle id="veh104" type="veh_passenger" depart="142.76" departLane="best" departSpeed="max">
        <route edges="-51508352#2 -51508352#1 149935566#1 149935566#2 58561800#1 58561799#0 58561799#1 147557400#1 147557400#3 147557400#4 147557400#5 4645391#0 4645391#1 4645391#2"/>
    </vehicle>
    <vehicle id="veh105" type="veh_passenger" depart="144.14" departLane="best">
        <route edges="27222779#1 27222779#2 40317927#1 943540703#0 943540703#1 943540703#2 943540702#0 943540702#1 51476080#1 51476080#2 51476080#3 51476080#4 51476080#5 51476080#6 51508352#1 51508352#2"/>
    </vehicle>
    <vehicle id="veh107" type="veh_passenger" depart="146.88" departLane="best" departSpeed="max">
        <route edges="27222779#0 27222779#1 27222779#2 40317927#1 943540703#0 943540703#1 943540703#2 943540702#0 943540702#1 51476080#1 51476080#2 51476080#3 51476080#4 51476080#5 51476080#6 51508352#1 51508352#2"/>
    </vehicle>
    <vehicle id="veh108" type="veh_passenger" depart="148.25" departLane="best" departSpeed="max">
        <route edges="27222779#0 27222779#1 27222779#2 40317927#1 943540703#0 943540703#1 943540703#2 943540702#0 943540702#1 51476080#1 51476080#2 51476080#3 51476080#4 51476080#5 51476080#6 51508352#1 134929400#1"/>
    </vehicle>
    <vehicle id="veh109" type="veh_passenger" depart="149.63" departLane="best" departSpeed="max">
        <route edges="-51508352#2 -51508352#1 149935566#1 149935566#2 58561800#1 58561799#0 58561799#1 147557400#1 147557400#3 147557400#4 147557400#5"/>
    </vehicle>
    <vehicle id="veh111" type="veh_passenger" depart="152.37" departLane="best" departSpeed="max">
        <route edges="27222779#0 27222779#1 27222779#2 40317927#1 943540703#0 943540703#1 943540703#2 943540702#0 943540702#1 362368395#2"/>
    </vehicle>
    <vehicle id="veh112" type="veh_passenger" depart="153.74" departLane="best">
        <route edges="27222779#1 27222779#2 40317927#1 943540703#0 943540703#1 943540703#2 943540702#0 943540702#1 51476080#1 51476080#2 51476080#3 51476080#4 51476080#5 51476080#6 51508352#1 134929400#1"/>
    </vehicle>
    <vehicle id="veh113" type="veh_passenger" depart="155.12" departLane="best" departSpeed="max">
        <route edges="27222779#0 27222779#1 27222779#2 40317927#1 943540703#0 943540703#1 943540703#2 943540702#0 943540702#1 362368395#2"/>
    </vehicle>
    <vehicle id="veh115" type="veh_passenger" depart="157.86" departLane="best" departSpeed="max">
        <route edges="27222779#0 27222779#1 27222779#2 40317922#1 40317922#2 4645392#1 4645392#3 -4645391#2 -4645391#1 -4645391#0"/>
    </vehicle>
    <vehicle id="veh116" type="veh_passenger" depart="159.24" departLane="best" departSpeed="max">
        <route edges="27222779#0 27222779#1 27222779#2 40317927#1 943540703#0 943540703#1 943540703#2 943540702#0 943540702#1 51476080#1 51476080#2 51476080#3 51476080#4 51476080#5 51476080#6 51508352#1 51508352#2"/>
    </vehicle>
    <vehicle id="veh117" type="veh_passenger" depart="160.61" departLane="best" departSpeed="max">
        <route edges="376401312#0 149935566#1 149935566#2 58561800#1 58561799#0 58561799#1 -943542797#0 -392103887 -40317922#4 -40317922#3 4645392#1 4645392#3 -4645391#2 -4645391#1 -4645391#0"/>
    </vehicle>
    <vehicle id="veh118" type="veh_passenger" depart="161.98" departLane="best" departSpeed="max">
        <route edges="-51508352#2 -51508352#1 -51476080#6 -51476080#5 -51476080#4 -51476080#3 -51476080#2 -51476080#1 362368395#2"/>
    </vehicle>
    <vehicle id="veh120" type="veh_passenger" depart="164.73" departLane="best" departSpeed="max">
        <route edges="376401312#0 149935566#1 149935566#2 58561800#1 58561799#0 58561799#1 147557400#1 147557400#3 147557400#4 147557400#5 4645391#0 4645391#1 4645391#2"/>
    </vehicle>
    <vehicle id="veh121" type="veh_passenger" depart="166.10" departLane="best" departSpeed="max">
        <route edges="-51508352#2 -51508352#1 149935566#1 149935566#2 58561800#1 58561799#0 58561799#1 -943542797#0 -392103887 -40317922#4 -40317922#3 -40317922#2 -40317922#1 -27222779#2 -27222779#1 -27222779#0"/>
    </vehicle>
    <vehicle id="veh122" type="veh_passenger" depart="167.47" departLane="best" departSpeed="max">
        <route edges="-51508352#2 -51508352#1 -51476080#6 -51476080#5 -51476080#4 -51476080#3 -51476080#2 -51476080#1 362368395#2"/>
    </vehicle>
    <vehicle id="veh123" type="veh_passenger" depart="168.84" departLane="best" departSpeed="max">