<?xml version="1.0" encoding="UTF-8"?>

<!-- generated on 2024-09-05 10:05:48.937367 by randomTrips.py v1_20_0+0002-343658e7c64
<configuration>
    <net-file value="osm.net.xml.gz"/>
    <output-trip-file value="osm.passenger.trips.xml"/>
    <route-file value="osm.passenger.rou.xml"/>
    <prefix value="veh"/>
    <trip-attributes value="departLane=&quot;best&quot;"/>
    <fringe-start-attributes value="departSpeed=&quot;max&quot;"/>
    <vehicle-class value="passenger"/>
    <lanes value="True"/>
    <fringe-factor value="50"/>
    <allow-fringe.min-length value="1000.0"/>
    <via-edge-types value="highway.motorway,highway.motorway_link,highway.trunk_link,highway.primary_link,highway.secondary_link,highway.tertiary_link"/>
    <min-distance value="300.0"/>
    <min-distance.fringe value="10.0"/>
    <remove-loops value="True"/>
    <validate value="True"/>
    <insertion-density value="1500.0"/>
</configuration>
-->

<!-- generated on 2024-09-05 10:05:48 by Eclipse SUMO duarouter Version 1.20.0
<configuration xmlns:xsi="http://www.w3.org/2001/XMLSchema-instance" xsi:noNamespaceSchemaLocation="http://sumo.dlr.de/xsd/duarouterConfiguration.xsd">

    <input>
        <net-file value="osm.net.xml.gz"/>
        <route-files value="osm.passenger.trips.xml"/>
    </input>

    <output>
        <output-file value="osm.passenger.trips.xml.tmp"/>
        <alternatives-output value="NUL"/>
        <write-trips value="true"/>
    </output>

    <processing>
        <remove-loops value="true"/>
    </processing>

    <time>
        <begin value="0.0"/>
        <end value="3600.0"/>
    </time>

    <report>
        <no-warnings value="true"/>
        <ignore-errors value="true"/>
        <no-step-log value="true"/>
    </report>

</configuration>
-->

<routes xmlns:xsi="http://www.w3.org/2001/XMLSchema-instance" xsi:noNamespaceSchemaLocation="http://sumo.dlr.de/xsd/routes_file.xsd">
    <vType id="veh_passenger" vClass="passenger"/>
    <trip id="veh0" type="veh_passenger" depart="0.00" departLane="best" departSpeed="max" from="376401312#0" to="-27222779#0"/>
    <trip id="veh1" type="veh_passenger" depart="1.28" departLane="best" departSpeed="max" from="-51508352#1" to="-4645391"/>
    <trip id="veh2" type="veh_passenger" depart="2.57" departLane="best" departSpeed="max" from="376401312#0" to="-27222779#0"/>
    <trip id="veh3" type="veh_passenger" depart="3.85" departLane="best" from="149935566#1" to="-27222779#0"/>
    <trip id="veh4" type="veh_passenger" depart="5.13" departLane="best" departSpeed="max" from="-51508352#1" to="-27222779#0"/>
    <trip id="veh5" type="veh_passenger" depart="6.42" departLane="best" departSpeed="max" from="27222779#0" to="362368395#2"/>
    <trip id="veh6" type="veh_passenger" depart="7.70" departLane="best" from="-40317921#1" to="362368395#2"/>
    <trip id="veh7" type="veh_passenger" depart="8.99" departLane="best" departSpeed="max" from="376401312#0" to="-27222779#0"/>
    <trip id="veh8" type="veh_passenger" depart="10.27" departLane="best" departSpeed="max" from="-51508352#1" to="-4645391"/>
    <trip id="veh9" type="veh_passenger" depart="11.55" departLane="best" departSpeed="max" from="-51508352#1" to="-4645391"/>
    <trip id="veh10" type="veh_passenger" depart="12.84" departLane="best" departSpeed="max" from="-51508352#1" to="-4645391"/>
    <trip id="veh12" type="veh_passenger" depart="15.40" departLane="best" departSpeed="max" from="27222779#0" to="362368395#2"/>
    <trip id="veh13" type="veh_passenger" depart="16.69" departLane="best" departSpeed="max" from="-51508352#1" to="-27222779#0"/>
    <trip id="veh14" type="veh_passenger" depart="17.97" departLane="best" departSpeed="max" from="-51508352#1" to="-4645391"/>
    <trip id="veh15" type="veh_passenger" depart="19.25" departLane="best" departSpeed="max" from="27222779#0" to="51508352#1"/>
    <trip id="veh16" type="veh_passenger" depart="20.54" departLane="best" from="-943542797#0" to="362368395#2"/>
    <trip id="veh17" type="veh_passenger" depart="21.82" departLane="best" departSpeed="max" from="-51508352#1" to="-27222779#0"/>
    <trip id="veh18" type="veh_passenger" depart="23.10" departLane="best" from="-943542797#0" to="362368395#2"/>
    <trip id="veh19" type="veh_passenger" depart="24.39" departLane="best" departSpeed="max" from="27222779#0" to="58561799#0"/>
    <trip id="veh20" type="veh_passenger" depart="25.67" departLane="best" departSpeed="max" from="27222779#0" to="40317921#1"/>
    <trip id="veh21" type="veh_passenger" depart="26.96" departLane="best" departSpeed="max" from="-51508352#1" to="-27222779#0"/>
    <trip id="veh22" type="veh_passenger" depart="28.24" departLane="best" departSpeed="max" from="376401312#0" to="-27222779#0"/>
    <trip id="veh23" type="veh_passenger" depart="29.52" departLane="best" departSpeed="max" from="27222779#0" to="362368395#2"/>
    <trip id="veh24" type="veh_passenger" depart="30.81" departLane="best" departSpeed="max" from="27222779#0" to="362368395#2"/>
    <trip id="veh25" type="veh_passenger" depart="32.09" departLane="best" departSpeed="max" from="-51508352#1" to="-4645391"/>
    <trip id="veh26" type="veh_passenger" depart="33.37" departLane="best" from="-943542797#0" to="362368395#2"/>
    <trip id="veh27" type="veh_passenger" depart="34.66" departLane="best" departSpeed="max" from="27222779#0" to="362368395#2"/>
    <trip id="veh28" type="veh_passenger" depart="35.94" departLane="best" departSpeed="max" from="-51508352#1" to="-4645391"/>
    <trip id="veh30" type="veh_passenger" depart="38.51" departLane="best" departSpeed="max" from="-51508352#1" to="-4645391"/>
    <trip id="veh31" type="veh_passenger" depart="39.79" departLane="best" from="-392103887" to="-27222779#0"/>
    <trip id="veh32" type="veh_passenger" depart="41.07" departLane="best" departSpeed="max" from="-51508352#1" to="-27222779#0"/>
    <trip id="veh33" type="veh_passenger" depart="42.36" departLane="best" from="58561799#0" to="362368395#2"/>
    <trip id="veh34" type="veh_passenger" depart="43.64" departLane="best" departSpeed="max" from="27222779#0" to="51476080#5"/>
    <trip id="veh35" type="veh_passenger" depart="44.93" departLane="best" departSpeed="max" from="27222779#0" to="362368395#2"/>
    <trip id="veh36" type="veh_passenger" depart="46.21" departLane="best" departSpeed="max" from="27222779#0" to="51508352#1"/>
    <trip id="veh37" type="veh_passenger" depart="47.49" departLane="best" departSpeed="max" from="376401312#0" to="-27222779#2"/>
    <trip id="veh38" type="veh_passenger" depart="48.78" departLane="best" departSpeed="max" from="27222779#0" to="362368395#2"/>
    <trip id="veh39" type="veh_passenger" depart="50.06" departLane="best" departSpeed="max" from="27222779#0" to="362368395#2"/>
    <trip id="veh40" type="veh_passenger" depart="51.34" departLane="best" departSpeed="max" from="-51508352#1" to="-4645391"/>
    <trip id="veh41" type="veh_passenger" depart="52.63" departLane="best" departSpeed="max" from="27222779#0" to="51508352#1"/>
    <trip id="veh42" type="veh_passenger" depart="53.91" departLane="best" departSpeed="max" from="27222779#0" to="362368395#2"/>
    <trip id="veh43" type="veh_passenger" depart="55.19" departLane="best" departSpeed="max" from="-51508352#1" to="-27222779#0"/>
    <trip id="veh44" type="veh_passenger" depart="56.48" departLane="best" departSpeed="max" from="27222779#0" to="362368395#2"/>
    <trip id="veh45" type="veh_passenger" depart="57.76" departLane="best" departSpeed="max" from="27222779#0" to="362368395#2"/>
    <trip id="veh46" type="veh_passenger" depart="59.04" departLane="best" departSpeed="max" from="27222779#0" to="51508352#1"/>
    <trip id="veh47" type="veh_passenger" depart="60.33" departLane="best" departSpeed="max" from="376401312#0" to="-4645391"/>
    <trip id="veh48" type="veh_passenger" depart="61.61" departLane="best" departSpeed="max" from="-51508352#1" to="-4645391"/>
    <trip id="veh49" type="veh_passenger" depart="62.90" departLane="best" departSpeed="max" from="376401312#0" to="-27222779#0"/>
    <trip id="veh50" type="veh_passenger" depart="64.18" departLane="best" departSpeed="max" from="376401312#0" to="-4645391"/>
    <trip id="veh51" type="veh_passenger" depart="65.46" departLane="best" departSpeed="max" from="-51508352#1" to="-27222779#0"/>
    <trip id="veh52" type="veh_passenger" depart="66.75" departLane="best" departSpeed="max" from="376401312#0" to="-4645391"/>
    <trip id="veh53" type="veh_passenger" depart="68.03" departLane="best" departSpeed="max" from="376401312#0" to="-4645391"/>
    <trip id="veh54" type="veh_passenger" depart="69.31" departLane="best" departSpeed="max" from="27222779#0" to="51508352#1"/>
    <trip id="veh55" type="veh_passenger" depart="70.60" departLane="best" departSpeed="max" from="376401312#0" to="-27222779#0"/>
    <trip id="veh56" type="veh_passenger" depart="71.88" departLane="best" departSpeed="max" from="376401312#0" to="-4645391"/>
    <trip id="veh57" type="veh_passenger" depart="73.16" departLane="best" departSpeed="max" from="-51508352#1" to="-27222779#0"/>
    <trip id="veh58" type="veh_passenger" depart="74.45" departLane="best" from="51476080#1" to="-4645391"/>
    <trip id="veh59" type="veh_passenger" depart="75.73" departLane="best" departSpeed="max" from="-51508352#1" to="-27222779#0"/>
    <trip id="veh60" type="veh_passenger" depart="77.01" departLane="best" departSpeed="max" from="27222779#0" to="362368395#2"/>
    <trip id="veh61" type="veh_passenger" depart="78.30" departLane="best" from="-40317921#1" to="943540702#0"/>
    <trip id="veh62" type="veh_passenger" depart="79.58" departLane="best" from="-40317922#1" to="362368395#2"/>
    <trip id="veh63" type="veh_passenger" depart="80.87" departLane="best" departSpeed="max" from="376401312#0" to="-4645391"/>
    <trip id="veh64" type="veh_passenger" depart="82.15" departLane="best" departSpeed="max" from="376401312#0" to="-27222779#0"/>
    <trip id="veh65" type="veh_passenger" depart="83.43" departLane="best" departSpeed="max" from="376401312#0" to="-4645391"/>
    <trip id="veh66" type="veh_passenger" depart="84.72" departLane="best" from="134941607#1" to="51508352#1"/>
    <trip id="veh67" type="veh_passenger" depart="86.00" departLane="best" from="943540702#1" to="-4645391"/>
    <trip id="veh68" type="veh_passenger" depart="87.28" departLane="best" from="58561799#1" to="-27222779#0"/>
    <trip id="veh69" type="veh_passenger" depart="88.57" departLane="best" from="943540702#1" to="40317921#1"/>
    <trip id="veh70" type="veh_passenger" depart="89.85" departLane="best" departSpeed="max" from="376401312#0" to="-4645391"/>
    <trip id="veh71" type="veh_passenger" depart="91.13" departLane="best" from="27222779#2" to="362368395#2"/>
    <trip id="veh72" type="veh_passenger" depart="92.42" departLane="best" departSpeed="max" from="27222779#0" to="362368395#2"/>
    <trip id="veh73" type="veh_passenger" depart="93.70" departLane="best" from="27222779#1" to="51508352#1"/>
    <trip id="veh74" type="veh_passenger" depart="94.98" departLane="best" departSpeed="max" from="27222779#0" to="362368395#2"/>
    <trip id="veh75" type="veh_passenger" depart="96.27" departLane="best" departSpeed="max" from="376401312#0" to="-4645391"/>
    <trip id="veh76" type="veh_passenger" depart="97.55" departLane="best" departSpeed="max" from="376401312#0" to="-4645391"/>
    <trip id="veh77" type="veh_passenger" depart="98.84" departLane="best" departSpeed="max" from="-51508352#1" to="-27222779#2"/>
    <trip id="veh78" type="veh_passenger" depart="100.12" departLane="best" from="58561799#1" to="362368395#2"/>
    <trip id="veh79" type="veh_passenger" depart="101.40" departLane="best" departSpeed="max" from="27222779#0" to="362368395#2"/>
    <trip id="veh80" type="veh_passenger" depart="102.69" departLane="best" departSpeed="max" from="27222779#0" to="51508352#1"/>
    <trip id="veh81" type="veh_passenger" depart="103.97" departLane="best" departSpeed="max" from="376401312#0" to="-4645391"/>
    <trip id="veh82" type="veh_passenger" depart="105.25" departLane="best" departSpeed="max" from="376401312#0" to="-4645391"/>
    <trip id="veh83" type="veh_passenger" depart="106.54" departLane="best" departSpeed="max" from="-51508352#1" to="-27222779#0"/>
    <trip id="veh84" type="veh_passenger" depart="107.82" departLane="best" departSpeed="max" from="376401312#0" to="-27222779#0"/>
    <trip id="veh85" type="veh_passenger" depart="109.10" departLane="best" departSpeed="max" from="27222779#0" to="362368395#2"/>
    <trip id="veh86" type="veh_passenger" depart="110.39" departLane="best" departSpeed="max" from="376401312#0" to="-27222779#0"/>
    <trip id="veh87" type="veh_passenger" depart="111.67" departLane="best" departSpeed="max" from="27222779#0" to="51508352#1"/>
    <trip id="veh88" type="veh_passenger" depart="112.96" departLane="best" departSpeed="max" from="27222779#0" to="51508352#1"/>
    <trip id="veh90" type="veh_passenger" depart="115.52" departLane="best" departSpeed="max" from="376401312#0" to="-4645391"/>
    <trip id="veh91" type="veh_passenger" depart="116.81" departLane="best" departSpeed="max" from="-51508352#1" to="-4645391"/>
    <trip id="veh92" type="veh_passenger" depart="118.09" departLane="best" departSpeed="max" from="-51508352#1" to="-4645391"/>
    <trip id="veh93" type="veh_passenger" depart="119.37" departLane="best" departSpeed="max" from="376401312#0" to="-27222779#0"/>
    <trip id="veh94" type="veh_passenger" depart="120.66" departLane="best" departSpeed="max" from="27222779#0" to="362368395#2"/>
    <trip id="veh95" type="veh_passenger" depart="121.94" departLane="best" departSpeed="max" from="27222779#0" to="51508352#1"/>
    <trip id="veh96" type="veh_passenger" depart="123.22" departLane="best" departSpeed="max" from="27222779#0" to="362368395#2"/>
    <trip id="veh97" type="veh_passenger" depart="124.51" departLane="best" departSpeed="max" from="27222779#0" to="362368395#2"/>
    <trip id="veh98" type="veh_passenger" depart="125.79" departLane="best" departSpeed="max" from="-51508352#1" to="-4645391"/>
    <trip id="veh100" type="veh_passenger" depart="128.36" departLane="best" departSpeed="max" from="376401312#0" to="-27222779#0"/>
    <trip id="veh101" type="veh_passenger" depart="129.64" departLane="best" departSpeed="max" from="27222779#0" to="362368395#2"/>
    <trip id="veh102" type="veh_passenger" depart="130.93" departLane="best" from="-40317922#1" to="362368395#2"/>
    <trip id="veh103" type="veh_passenger" depart="132.21" departLane="best" departSpeed="max" from="-51508352#1" to="-4645391"/>
    <trip id="veh105" type="veh_passenger" depart="134.78" departLane="best" departSpeed="max" from="-51508352#1" to="-27222779#0"/>
    <trip id="veh106" type="veh_passenger" depart="136.06" departLane="best" from="-40317921#1" to="362368395#2"/>
    <trip id="veh107" type="veh_passenger" depart="137.34" departLane="best" from="-40317921#1" to="-27222779#0"/>
    <trip id="veh108" type="veh_passenger" depart="138.63" departLane="best" departSpeed="max" from="376401312#0" to="4645392#3"/>
    <trip id="veh109" type="veh_passenger" depart="139.91" departLane="best" departSpeed="max" from="376401312#0" to="-27222779#0"/>
    <trip id="veh110" type="veh_passenger" depart="141.19" departLane="best" departSpeed="max" from="-51508352#1" to="-27222779#0"/>
    <trip id="veh111" type="veh_passenger" depart="142.48" departLane="best" departSpeed="max" from="376401312#0" to="-27222779#0"/>
    <trip id="veh112" type="veh_passenger" depart="143.76" departLane="best" departSpeed="max" from="376401312#0" to="-4645391"/>
    <trip id="veh113" type="veh_passenger" depart="145.04" departLane="best" departSpeed="max" from="27222779#0" to="51476080#5"/>
    <trip id="veh114" type="veh_passenger" depart="146.33" departLane="best" departSpeed="max" from="27222779#0" to="362368395#2"/>
    <trip id="veh115" type="veh_passenger" depart="147.61" departLane="best" departSpeed="max" from="27222779#0" to="362368395#2"/>
    <trip id="veh116" type="veh_passenger" depart="148.90" departLane="best" departSpeed="max" from="376401312#0" to="-27222779#0"/>
    <trip id="veh117" type="veh_passenger" depart="150.18" departLane="best" departSpeed="max" from="27222779#0" to="362368395#2"/>
    <trip id="veh118" type="veh_passenger" depart="151.46" departLane="best" departSpeed="max" from="376401312#0" to="-40317922#1"/>
    <trip id="veh119" type="veh_passenger" depart="152.75" departLane="best" departSpeed="max" from="376401312#0" to="-4645391"/>
    <trip id="veh120" type="veh_passenger" depart="154.03" departLane="best" departSpeed="max" from="27222779#0" to="40317922#4"/>
    <trip id="veh121" type="veh_passenger" depart="155.31" departLane="best" departSpeed="max" from="27222779#0" to="51508352#1"/>
    <trip id="veh122" type="veh_passenger" depart="156.60" departLane="best" departSpeed="max" from="-51508352#1" to="-4645391"/>
    <trip id="veh123" type="veh_passenger" depart="157.88" departLane="best" departSpeed="max" from="376401312#0" to="-4645391"/>
    <trip id="veh124" type="veh_passenger" depart="159.16" departLane="best" departSpeed="max" from="27222779#0" to="362368395#2"/>
    <trip id="veh125" type="veh_passenger" depart="160.45" departLane="best" departSpeed="max" from="27222779#0" to="362368395#2"/>
    <trip id="veh126" type="veh_passenger" depart="161.73" departLane="best" departSpeed="max" from="376401312#0" to="-4645391"/>
    <trip id="veh127" type="veh_passenger" depart="163.01" departLane="best" departSpeed="max" from="376401312#0" to="-4645391"/>
    <trip id="veh128" type="veh_passenger" depart="164.30" departLane="best" departSpeed="max" from="-51508352#1" to="-27222779#0"/>
    <trip id="veh129" type="veh_passenger" depart="165.58" departLane="best" departSpeed="max" from="-51508352#1" to="-27222779#0"/>
    <trip id="veh130" type="veh_passenger" depart="166.87" departLane="best" departSpeed="max" from="-51508352#1" to="-4645391"/>
    <trip id="veh131" type="veh_passenger" depart="168.15" departLane="best" departSpeed="max" from="27222779#0" to="362368395#2"/>
    <trip id="veh132" type="veh_passenger" depart="169.43" departLane="best" departSpeed="max" from="-51508352#1" to="-27222779#0"/>
    <trip id="veh133" type="veh_passenger" depart="170.72" departLane="best" departSpeed="max" from="-51508352#1" to="-4645391"/>
    <trip id="veh134" type="veh_passenger" depart="172.00" departLane="best" departSpeed="max" from="-51508352#1" to="-27222779#0"/>
    <trip id="veh135" type="veh_passenger" depart="173.28" departLane="best" departSpeed="max" from="376401312#0" to="-27222779#0"/>
    <trip id="veh136" type="veh_passenger" depart="174.57" departLane="best" from="-40317922#1" to="362368395#2"/>
    <trip id="veh137" type="veh_passenger" depart="175.85" departLane="best" from="-40317922#2" to="362368395#2"/>
    <trip id="veh138" type="veh_passenger" depart="177.13" departLane="best" departSpeed="max" from="27222779#0" to="362368395#2"/>
    <trip id="veh139" type="veh_passenger" depart="178.42" departLane="best" departSpeed="max" from="-51508352#1" to="-27222779#0"/>
    <trip id="veh140" type="veh_passenger" depart="179.70" departLane="best" from="58561799#1" to="362368395#2"/>
    <trip id="veh141" type="veh_passenger" depart="180.98" departLane="best" from="51476080#3" to="-27222779#0"/>
    <trip id="veh142" type="veh_passenger" depart="182.27" departLane="best" from="-943542797#0" to="-27222779#0"/>
    <trip id="veh143" type="veh_passenger" depart="183.55" departLane="best" departSpeed="max" from="376401312#0" to="-4645391"/>
    <trip id="veh144" type="veh_passenger" depart="184.84" departLane="best" departSpeed="max" from="27222779#0" to="362368395#2"/>
    <trip id="veh145" type="veh_passenger" depart="186.12" departLane="best" departSpeed="max" from="27222779#0" to="51508352#1"/>
    <trip id="veh146" type="veh_passenger" depart="187.40" departLane="best" departSpeed="max" from="-51508352#1" to="-4645391"/>
    <trip id="veh147" type="veh_passenger" depart="188.69" departLane="best" departSpeed="max" from="376401312#0" to="-27222779#0"/>
    <trip id="veh148" type="veh_passenger" depart="189.97" departLane="best" departSpeed="max" from="-51508352#1" to="-27222779#0"/>
    <trip id="veh149" type="veh_passenger" depart="191.25" departLane="best" from="27222779#1" to="362368395#2"/>
    <trip id="veh150" type="veh_passenger" depart="192.54" departLane="best" departSpeed="max" from="27222779#0" to="362368395#2"/>
    <trip id="veh151" type="veh_passenger" depart="193.82" departLane="best" departSpeed="max" from="376401312#0" to="-27222779#0"/>
    <trip id="veh152" type="veh_passenger" depart="195.10" departLane="best" departSpeed="max" from="-51508352#1" to="-4645391"/>
    <trip id="veh153" type="veh_passenger" depart="196.39" departLane="best" departSpeed="max" from="-51508352#1" to="-27222779#0"/>
    <trip id="veh154" type="veh_passenger" depart="197.67" departLane="best" from="58561799#1" to="362368395#2"/>
    <trip id="veh155" type="veh_passenger" depart="198.95" departLane="best" from="-40317922#4" to="362368395#2"/>
    <trip id="veh156" type="veh_passenger" depart="200.24" departLane="best" departSpeed="max" from="376401312#0" to="-4645391"/>
    <trip id="veh157" type="veh_passenger" depart="201.52" departLane="best" departSpeed="max" from="27222779#0" to="362368395#2"/>
    <trip id="veh158" type="veh_passenger" depart="202.81" departLane="best" departSpeed="max" from="27222779#0" to="362368395#2"/>
    <trip id="veh159" type="veh_passenger" depart="204.09" departLane="best" from="149935566#2" to="-4645391"/>
    <trip id="veh161" type="veh_passenger" depart="206.66" departLane="best" departSpeed="max" from="27222779#0" to="362368395#2"/>
    <trip id="veh162" type="veh_passenger" depart="207.94" departLane="best" departSpeed="max" from="376401312#0" to="-4645391"/>
    <trip id="veh163" type="veh_passenger" depart="209.22" departLane="best" departSpeed="max" from="27222779#0" to="51508352#1"/>
    <trip id="veh164" type="veh_passenger" depart="210.51" departLane="best" departSpeed="max" from="27222779#0" to="362368395#2"/>
    <trip id="veh165" type="veh_passenger" depart="211.79" departLane="best" from="344664988#0" to="-4645391"/>
    <trip id="veh166" type="veh_passenger" depart="213.07" departLane="best" departSpeed="max" from="27222779#0" to="51508352#1"/>
    <trip id="veh167" type="veh_passenger" depart="214.36" departLane="best" departSpeed="max" from="27222779#0" to="51508352#1"/>
    <trip id="veh168" type="veh_passenger" depart="215.64" departLane="best" departSpeed="max" from="-51508352#1" to="-4645391"/>
    <trip id="veh169" type="veh_passenger" depart="216.93" departLane="best" departSpeed="max" from="27222779#0" to="943542797#0"/>
    <trip id="veh170" type="veh_passenger" depart="218.21" departLane="best" departSpeed="max" from="27222779#0" to="362368395#2"/>
    <trip id="veh171" type="veh_passenger" depart="219.49" departLane="best" departSpeed="max" from="376401312#0" to="-27222779#0"/>
    <trip id="veh172" type="veh_passenger" depart="220.78" departLane="best" from="-40317922#3" to="362368395#2"/>
    <trip id="veh173" type="veh_passenger" depart="222.06" departLane="best" departSpeed="max" from="27222779#0" to="51508352#1"/>
    <trip id="veh174" type="veh_passenger" depart="223.34" departLane="best" from="-40317922#2" to="362368395#2"/>
    <trip id="veh175" type="veh_passenger" depart="224.63" departLane="best" departSpeed="max" from="27222779#0" to="362368395#2"/>
    <trip id="veh176" type="veh_passenger" depart="225.91" departLane="best" departSpeed="max" from="376401312#0" to="-27222779#2"/>
    <trip id="veh177" type="veh_passenger" depart="227.19" departLane="best" departSpeed="max" from="376401312#0" to="-27222779#0"/>
    <trip id="veh178" type="veh_passenger" depart="228.48" departLane="best" departSpeed="max" from="27222779#0" to="58561800#1"/>
    <trip id="veh179" type="veh_passenger" depart="229.76" departLane="best" from="-40317922#2" to="362368395#2"/>
    <trip id="veh180" type="veh_passenger" depart="231.04" departLane="best" departSpeed="max" from="27222779#0" to="51508352#1"/>
    <trip id="veh181" type="veh_passenger" depart="232.33" departLane="best" departSpeed="max" from="-51508352#1" to="-27222779#0"/>
    <trip id="veh182" type="veh_passenger" depart="233.61" departLane="best" from="-40317922#2" to="362368395#2"/>
    <trip id="veh183" type="veh_passenger" depart="234.90" departLane="best" departSpeed="max" from="-51508352#1" to="-4645391"/>
    <trip id="veh184" type="veh_passenger" depart="236.18" departLane="best" from="27222779#2" to="51508352#1"/>
    <trip id="veh185" type="veh_passenger" depart="237.46" departLane="best" departSpeed="max" from="27222779#0" to="362368395#2"/>
    <trip id="veh186" type="veh_passenger" depart="238.75" departLane="best" departSpeed="max" from="27222779#0" to="51508352#1"/>
    <trip id="veh187" type="veh_passenger" depart="240.03" departLane="best" departSpeed="max" from="376401312#0" to="-4645391"/>
    <trip id="veh188" type="veh_passenger" depart="241.31" departLane="best" departSpeed="max" from="27222779#0" to="362368395#2"/>
    <trip id="veh189" type="veh_passenger" depart="242.60" departLane="best" departSpeed="max" from="376401312#0" to="-27222779#0"/>
    <trip id="veh190" type="veh_passenger" depart="243.88" departLane="best" departSpeed="max" from="-51508352#1" to="-27222779#0"/>
    <trip id="veh191" type="veh_passenger" depart="245.16" departLane="best" departSpeed="max" from="27222779#0" to="51508352#1"/>
    <trip id="veh192" type="veh_passenger" depart="246.45" departLane="best" departSpeed="max" from="376401312#0" to="-4645391"/>
    <trip id="veh193" type="veh_passenger" depart="247.73" departLane="best" from="149935566#1" to="-27222779#0"/>
    <trip id="veh194" type="veh_passenger" depart="249.01" departLane="best" departSpeed="max" from="27222779#0" to="51508352#1"/>
    <trip id="veh195" type="veh_passenger" depart="250.30" departLane="best" departSpeed="max" from="27222779#0" to="362368395#2"/>
    <trip id="veh196" type="veh_passenger" depart="251.58" departLane="best" departSpeed="max" from="-51508352#1" to="-4645391"/>
    <trip id="veh197" type="veh_passenger" depart="252.87" departLane="best" departSpeed="max" from="27222779#0" to="51508352#1"/>
    <trip id="veh198" type="veh_passenger" depart="254.15" departLane="best" departSpeed="max" from="-51508352#1" to="-27222779#0"/>
    <trip id="veh199" type="veh_passenger" depart="255.43" departLane="best" departSpeed="max" from="-51508352#1" to="-27222779#2"/>
    <trip id="veh200" type="veh_passenger" depart="256.72" departLane="best" from="58561799#1" to="362368395#2"/>
    <trip id="veh201" type="veh_passenger" depart="258.00" departLane="best" departSpeed="max" from="376401312#0" to="-27222779#0"/>
    <trip id="veh202" type="veh_passenger" depart="259.28" departLane="best" from="58561800#1" to="-27222779#0"/>
    <trip id="veh203" type="veh_passenger" depart="260.57" departLane="best" departSpeed="max" from="27222779#0" to="362368395#2"/>
    <trip id="veh204" type="veh_passenger" depart="261.85" departLane="best" departSpeed="max" from="27222779#0" to="149935566#2"/>
    <trip id="veh205" type="veh_passenger" depart="263.13" departLane="best" departSpeed="max" from="-51508352#1" to="-27222779#0"/>
    <trip id="veh206" type="veh_passenger" depart="264.42" departLane="best" departSpeed="max" from="376401312#0" to="-4645391"/>
    <trip id="veh207" type="veh_passenger" depart="265.70" departLane="best" from="51476080#6" to="4645392#1"/>
    <trip id="veh208" type="veh_passenger" depart="266.98" departLane="best" departSpeed="max" from="-51508352#1" to="-4645391"/>
    <trip id="veh209" type="veh_passenger" depart="268.27" departLane="best" from="27222779#1" to="51508352#1"/>
    <trip id="veh210" type="veh_passenger" depart="269.55" departLane="best" departSpeed="max" from="-51508352#1" to="-27222779#0"/>
    <trip id="veh211" type="veh_passenger" depart="270.84" departLane="best" departSpeed="max" from="376401312#0" to="-27222779#0"/>
    <trip id="veh212" type="veh_passenger" depart="272.12" departLane="best" departSpeed="max" from="-51508352#1" to="-4645391"/>
    <trip id="veh213" type="veh_passenger" depart="273.40" departLane="best" departSpeed="max" from="-51508352#1" to="-27222779#0"/>
    <trip id="veh214" type="veh_passenger" depart="274.69" departLane="best" from="58561799#1" to="-27222779#0"/>
    <trip id="veh215" type="veh_passenger" depart="275.97" departLane="best" departSpeed="max" from="27222779#0" to="362368395#2"/>
    <trip id="veh216" type="veh_passenger" depart="277.25" departLane="best" departSpeed="max" from="27222779#0" to="149935566#2"/>
    <trip id="veh217" type="veh_passenger" depart="278.54" departLane="best" from="51476080#5" to="-4645391"/>
    <trip id="veh218" type="veh_passenger" depart="279.82" departLane="best" departSpeed="max" from="27222779#0" to="362368395#2"/>
    <trip id="veh219" type="veh_passenger" depart="281.10" departLane="best" departSpeed="max" from="376401312#0" to="-4645391"/>
    <trip id="veh220" type="veh_passenger" depart="282.39" departLane="best" departSpeed="max" from="27222779#0" to="362368395#2"/>
    <trip id="veh221" type="veh_passenger" depart="283.67" departLane="best" from="51476080#6" to="-27222779#0"/>
    <trip id="veh222" type="veh_passenger" depart="284.95" departLane="best" departSpeed="max" from="376401312#0" to="-27222779#0"/>
    <trip id="veh223" type="veh_passenger" depart="286.24" departLane="best" departSpeed="max" from="27222779#0" to="362368395#2"/>
    <trip id="veh225" type="veh_passenger" depart="288.81" departLane="best" departSpeed="max" from="376401312#0" to="-4645391"/>
    <trip id="veh226" type="veh_passenger" depart="290.09" departLane="best" departSpeed="max" from="27222779#0" to="51508352#1"/>