<?xml version="1.0" encoding="UTF-8"?>

<!-- generated on 2024-09-05 10:05:10.806980 by randomTrips.py v1_20_0+0002-343658e7c64
<configuration>
    <net-file value="osm.net.xml.gz"/>
    <output-trip-file value="osm.passenger.trips.xml"/>
    <route-file value="osm.passenger.rou.xml"/>
    <prefix value="veh"/>
    <trip-attributes value="departLane=&quot;best&quot;"/>
    <fringe-start-attributes value="departSpeed=&quot;max&quot;"/>
    <vehicle-class value="passenger"/>
    <lanes value="True"/>
    <fringe-factor value="50"/>
    <allow-fringe.min-length value="1000.0"/>
    <via-edge-types value="highway.motorway,highway.motorway_link,highway.trunk_link,highway.primary_link,highway.secondary_link,highway.tertiary_link"/>
    <min-distance value="300.0"/>
    <min-distance.fringe value="10.0"/>
    <remove-loops value="True"/>
    <validate value="True"/>
    <insertion-density value="200.0"/>
</configuration>
-->

<!-- generated on 2024-09-05 10:05:10 by Eclipse SUMO duarouter Version 1.20.0
<configuration xmlns:xsi="http://www.w3.org/2001/XMLSchema-instance" xsi:noNamespaceSchemaLocation="http://sumo.dlr.de/xsd/duarouterConfiguration.xsd">

    <input>
        <net-file value="osm.net.xml.gz"/>
        <route-files value="osm.passenger.trips.xml"/>
    </input>

    <output>
        <output-file value="osm.passenger.rou.xml"/>
        <alternatives-output value="NUL"/>
    </output>

    <processing>
        <remove-loops value="true"/>
    </processing>

    <time>
        <begin value="0.0"/>
        <end value="3600.0"/>
    </time>

    <report>
        <no-warnings value="true"/>
        <ignore-errors value="true"/>
        <no-step-log value="true"/>
    </report>

</configuration>
-->

<routes xmlns:xsi="http://www.w3.org/2001/XMLSchema-instance" xsi:noNamespaceSchemaLocation="http://sumo.dlr.de/xsd/routes_file.xsd">
    <vType id="veh_passenger" vClass="passenger"/>
    <vehicle id="veh0" type="veh_passenger" depart="0.00" departLane="best" departSpeed="max">
        <route edges="376401312#0 149935566#1 149935566#2 58561800#1 58561799#0 58561799#1 -943542797#0 -392103887 -40317922#4 -40317922#3 -40317922#2 -40317922#1 -27222779#2 -27222779#1 -27222779#0"/>
    </vehicle>
    <vehicle id="veh1" type="veh_passenger" depart="9.63" departLane="best" departSpeed="max">
        <route edges="-51508352#1 149935566#1 149935566#2 58561800#1 58561799#0 58561799#1 -943542797#0 -392103887 -40317922#4 -40317922#3 4645392#1 4645392#3 -4645391"/>
    </vehicle>
    <vehicle id="veh2" type="veh_passenger" depart="19.25" departLane="best" departSpeed="max">
        <route edges="376401312#0 149935566#1 149935566#2 58561800#1 58561799#0 58561799#1 -943542797#0 -392103887 -40317922#4 -40317922#3 -40317922#2 -40317922#1 -27222779#2 -27222779#1 -27222779#0"/>
    </vehicle>
    <vehicle id="veh3" type="veh_passenger" depart="28.88" departLane="best">
        <route edges="149935566#1 149935566#2 58561800#1 58561799#0 58561799#1 -943542797#0 -392103887 -40317922#4 -40317922#3 -40317922#2 -40317922#1 -27222779#2 -27222779#1 -27222779#0"/>
    </vehicle>
    <vehicle id="veh4" type="veh_passenger" depart="38.51" departLane="best" departSpeed="max">
        <route edges="-51508352#1 149935566#1 149935566#2 58561800#1 58561799#0 58561799#1 -943542797#0 -392103887 -40317922#4 -40317922#3 -40317922#2 -40317922#1 -27222779#2 -27222779#1 -27222779#0"/>
    </vehicle>
    <vehicle id="veh5" type="veh_passenger" depart="48.13" departLane="best" departSpeed="max">
        <route edges="27222779#0 27222779#1 27222779#2 40317927#1 943540703#0 943540703#1 943540703#2 943540702#0 943540702#1 362368395#2"/>
    </vehicle>
    <vehicle id="veh6" type="veh_passenger" depart="57.76" departLane="best">
        <route edges="-40317921#1 -943542797#0 -392103887 -40317922#4 -40317922#3 -40317922#2 -40317922#1 40317927#1 943540703#0 943540703#1 943540703#2 943540702#0 943540702#1 362368395#2"/>
    </vehicle>
    <vehicle id="veh7" type="veh_passenger" depart="67.39" departLane="best" departSpeed="max">
        <route edges="376401312#0 149935566#1 149935566#2 58561800#1 58561799#0 58561799#1 -943542797#0 -392103887 -40317922#4 -40317922#3 -40317922#2 -40317922#1 -27222779#2 -27222779#1 -27222779#0"/>
    </vehicle>
    <vehicle id="veh8" type="veh_passenger" depart="77.01" departLane="best" departSpeed="max">
        <route edges="-51508352#1 149935566#1 149935566#2 58561800#1 58561799#0 58561799#1 -943542797#0 -392103887 -40317922#4 -40317922#3 4645392#1 4645392#3 -4645391"/>
    </vehicle>
    <vehicle id="veh9" type="veh_passenger" depart="86.64" departLane="best" departSpeed="max">
        <route edges="-51508352#1 149935566#1 149935566#2 58561800#1 58561799#0 58561799#1 -943542797#0 -392103887 -40317922#4 -40317922#3 4645392#1 4645392#3 -4645391"/>
    </vehicle>
    <vehicle id="veh10" type="veh_passenger" depart="96.27" departLane="best" departSpeed="max">
        <route edges="-51508352#1 149935566#1 149935566#2 58561800#1 58561799#0 58561799#1 -943542797#0 -392103887 -40317922#4 -40317922#3 4645392#1 4645392#3 -4645391"/>
    </vehicle>
    <vehicle id="veh12" type="veh_passenger" depart="115.52" departLane="best" departSpeed="max">
        <route edges="27222779#0 27222779#1 27222779#2 40317927#1 943540703#0 943540703#1 943540703#2 943540702#0 943540702#1 362368395#2"/>
    </vehicle>
    <vehicle id="veh13" type="veh_passenger" depart="125.15" departLane="best" departSpeed="max">
        <route edges="-51508352#1 149935566#1 149935566#2 58561800#1 58561799#0 58561799#1 -943542797#0 -392103887 -40317922#4 -40317922#3 -40317922#2 -40317922#1 -27222779#2 -27222779#1 -27222779#0"/>
    </vehicle>
    <vehicle id="veh14" type="veh_passenger" depart="134.78" departLane="best" departSpeed="max">
        <route edges="-51508352#1 149935566#1 149935566#2 58561800#1 58561799#0 58561799#1 -943542797#0 -392103887 -40317922#4 -40317922#3 4645392#1 4645392#3 -4645391"/>
    </vehicle>
    <vehicle id="veh15" type="veh_passenger" depart="144.40" departLane="best" departSpeed="max">
        <route edges="27222779#0 27222779#1 27222779#2 40317927#1 943540703#0 943540703#1 943540703#2 943540702#0 943540702#1 51476080#1 51476080#2 51476080#3 51476080#4 51476080#5 51476080#6 51508352#1"/>
    </vehicle>
    <vehicle id="veh16" type="veh_passenger" depart="154.03" departLane="best">
        <route edges="-943542797#0 -392103887 -40317922#4 -40317922#3 -40317922#2 -40317922#1 40317927#1 943540703#0 943540703#1 943540703#2 943540702#0 943540702#1 362368395#2"/>
    </vehicle>
    <vehicle id="veh17" type="veh_passenger" depart="163.66" departLane="best" departSpeed="max">
        <route edges="-51508352#1 149935566#1 149935566#2 58561800#1 58561799#0 58561799#1 -943542797#0 -392103887 -40317922#4 -40317922#3 -40317922#2 -40317922#1 -27222779#2 -27222779#1 -27222779#0"/>
    </vehicle>
    <vehicle id="veh18" type="veh_passenger" depart="173.28" departLane="best">
        <route edges="-943542797#0 -392103887 -40317922#4 -40317922#3 -40317922#2 -40317922#1 40317927#1 943540703#0 943540703#1 943540703#2 943540702#0 943540702#1 362368395#2"/>
    </vehicle>
    <vehicle id="veh19" type="veh_passenger" depart="182.91" departLane="best" departSpeed="max">
        <route edges="27222779#0 27222779#1 27222779#2 40317927#1 943540703#0 943540703#1 943540703#2 943540702#0 943540702#1 51476080#1 51476080#2 51476080#3 51476080#4 51476080#5 51476080#6 149935566#1 149935566#2 58561800#1 58561799#0"/>
    </vehicle>
    <vehicle id="veh20" type="veh_passenger" depart="192.54" departLane="best" departSpeed="max">
        <route edges="27222779#0 27222779#1 27222779#2 40317922#1 40317922#2 40317922#3 40317922#4 392103887 943542797#0 40317921#1"/>
    </vehicle>
    <vehicle id="veh21" type="veh_passenger" depart="202.16" departLane="best" departSpeed="max">
        <route edges="-51508352#1 149935566#1 149935566#2 58561800#1 58561799#0 58561799#1 -943542797#0 -392103887 -40317922#4 -40317922#3 -40317922#2 -40317922#1 -27222779#2 -27222779#1 -27222779#0"/>
    </vehicle>
    <vehicle id="veh22" type="veh_passenger" depart="211.79" departLane="best" departSpeed="max">
        <route edges="376401312#0 149935566#1 149935566#2 58561800#1 58561799#0 58561799#1 -943542797#0 -392103887 -40317922#4 -40317922#3 -40317922#2 -40317922#1 -27222779#2 -27222779#1 -27222779#0"/>
    </vehicle>
    <vehicle id="veh23" type="veh_passenger" depart="221.42" departLane="best" departSpeed="max">
        <route edges="27222779#0 27222779#1 27222779#2 40317927#1 943540703#0 943540703#1 943540703#2 943540702#0 943540702#1 362368395#2"/>
    </vehicle>
    <vehicle id="veh24" type="veh_passenger" depart="231.04" departLane="best" departSpeed="max">
        <route edges="27222779#0 27222779#1 27222779#2 40317927#1 943540703#0 943540703#1 943540703#2 943540702#0 943540702#1 362368395#2"/>
    </vehicle>
    <vehicle id="veh25" type="veh_passenger" depart="240.67" departLane="best" departSpeed="max">
        <route edges="-51508352#1 149935566#1 149935566#2 58561800#1 58561799#0 58561799#1 -943542797#0 -392103887 -40317922#4 -40317922#3 4645392#1 4645392#3 -4645391"/>
    </vehicle>
    <vehicle id="veh26" type="veh_passenger" depart="250.30" departLane="best">
        <route edges="-943542797#0 -392103887 -40317922#4 -40317922#3 -40317922#2 -40317922#1 40317927#1 943540703#0 943540703#1 943540703#2 943540702#0 943540702#1 362368395#2"/>
    </vehicle>
    <vehicle id="veh27" type="veh_passenger" depart="259.93" departLane="best" departSpeed="max">
        <route edges="27222779#0 27222779#1 27222779#2 40317927#1 943540703#0 943540703#1 943540703#2 943540702#0 943540702#1 362368395#2"/>
    </vehicle>
    <vehicle id="veh28" type="veh_passenger" depart="269.55" departLane="best" departSpeed="max">
        <route edges="-51508352#1 149935566#1 149935566#2 58561800#1 58561799#0 58561799#1 -943542797#0 -392103887 -40317922#4 -40317922#3 4645392#1 4645392#3 -4645391"/>
    </vehicle>
    <vehicle id="veh30" type="veh_passenger" depart="288.81" departLane="best" departSpeed="max">
        <route edges="-51508352#1 149935566#1 149935566#2 58561800#1 58561799#0 58561799#1 -943542797#0 -392103887 -40317922#4 -40317922#3 4645392#1 4645392#3 -4645391"/>
    </vehicle>
    <vehicle id="veh31" type="veh_passenger" depart="298.43" departLane="best">
        <route edges="-392103887 -40317922#4 -40317922#3 -40317922#2 -40317922#1 -27222779#2 -27222779#1 -27222779#0"/>
    </vehicle>
    <vehicle id="veh32" type="veh_passenger" depart="308.06" departLane="best" departSpeed="max">
        <route edges="-51508352#1 149935566#1 149935566#2 58561800#1 58561799#0 58561799#1 -943542797#0 -392103887 -40317922#4 -40317922#3 -40317922#2 -40317922#1 -27222779#2 -27222779#1 -27222779#0"/>
    </vehicle>
    <vehicle id="veh33" type="veh_passenger" depart="317.69" departLane="best">
        <route edges="58561799#0 58561799#1 -943542797#0 -392103887 -40317922#4 -40317922#3 -40317922#2 -40317922#1 40317927#1 943540703#0 943540703#1 943540703#2 943540702#0 943540702#1 362368395#2"/>
    </vehicle>
    <vehicle id="veh34" type="veh_passenger" depart="327.31" departLane="best" departSpeed="max">
        <route edges="27222779#0 27222779#1 27222779#2 40317927#1 943540703#0 943540703#1 943540703#2 943540702#0 943540702#1 51476080#1 51476080#2 51476080#3 51476080#4 51476080#5"/>
    </vehicle>
    <vehicle id="veh35" type="veh_passenger" depart="336.94" departLane="best" departSpeed="max">
        <route edges="27222779#0 27222779#1 27222779#2 40317927#1 943540703#0 943540703#1 943540703#2 943540702#0 943540702#1 362368395#2"/>
    </vehicle>
    <vehicle id="veh36" type="veh_passenger" depart="346.57" departLane="best" departSpeed="max">
        <route edges="27222779#0 27222779#1 27222779#2 40317927#1 943540703#0 943540703#1 943540703#2 943540702#0 943540702#1 51476080#1 51476080#2 51476080#3 51476080#4 51476080#5 51476080#6 51508352#1"/>
    </vehicle>
    <vehicle id="veh37" type="veh_passenger" depart="356.19" departLane="best" departSpeed="max">
        <route edges="376401312#0 149935566#1 149935566#2 58561800#1 58561799#0 58561799#1 -943542797#0 -392103887 -40317922#4 -40317922#3 -40317922#2 -40317922#1 -27222779#2"/>
    </vehicle>
    <vehicle id="veh38" type="veh_passenger" depart="365.82" departLane="best" departSpeed="max">
        <route edges="27222779#0 27222779#1 27222779#2 40317927#1 943540703#0 943540703#1 943540703#2 943540702#0 943540702#1 362368395#2"/>
    </vehicle>
    <vehicle id="veh39" type="veh_passenger" depart="375.45" departLane="best" departSpeed="max">
        <route edges="27222779#0 27222779#1 27222779#2 40317927#1 943540703#0 943540703#1 943540703#2 943540702#0 943540702#1 362368395#2"/>
    </vehicle>
    <vehicle id="veh40" type="veh_passenger" depart="385.07" departLane="best" departSpeed="max">
        <route edges="-51508352#1 149935566#1 149935566#2 58561800#1 58561799#0 58561799#1 -943542797#0 -392103887 -40317922#4 -40317922#3 4645392#1 4645392#3 -4645391"/>
    </vehicle>
    <vehicle id="veh41" type="veh_passenger" depart="394.70" departLane="best" departSpeed="max">
        <route edges="27222779#0 27222779#1 27222779#2 40317927#1 943540703#0 943540703#1 943540703#2 943540702#0 943540702#1 51476080#1 51476080#2 51476080#3 51476080#4 51476080#5 51476080#6 51508352#1"/>
    </vehicle>
    <vehicle id="veh42" type="veh_passenger" depart="404.33" departLane="best" departSpeed="max">
        <route edges="27222779#0 27222779#1 27222779#2 40317927#1 943540703#0 943540703#1 943540703#2 943540702#0 943540702#1 362368395#2"/>
    </vehicle>
    <vehicle id="veh43" type="veh_passenger" depart="413.95" departLane="best" departSpeed="max">
        <route edges="-51508352#1 149935566#1 149935566#2 58561800#1 58561799#0 58561799#1 -943542797#0 -392103887 -40317922#4 -40317922#3 -40317922#2 -40317922#1 -27222779#2 -27222779#1 -27222779#0"/>
    </vehicle>
    <vehicle id="veh44" type="veh_passenger" depart="423.58" departLane="best" departSpeed="max">
        <route edges="27222779#0 27222779#1 27222779#2 40317927#1 943540703#0 943540703#1 943540703#2 943540702#0 943540702#1 362368395#2"/>
    </vehicle>
    <vehicle id="veh45" type="veh_passenger" depart="433.21" departLane="best" departSpeed="max">
        <route edges="27222779#0 27222779#1 27222779#2 40317927#1 943540703#0 943540703#1 943540703#2 943540702#0 943540702#1 362368395#2"/>
    </vehicle>
    <vehicle id="veh46" type="veh_passenger" depart="442.84" departLane="best" departSpeed="max">
        <route edges="27222779#0 27222779#1 27222779#2 40317927#1 943540703#0 943540703#1 943540703#2 943540702#0 943540702#1 51476080#1 51476080#2 51476080#3 51476080#4 51476080#5 51476080#6 51508352#1"/>
    </vehicle>
    <vehicle id="veh47" type="veh_passenger" depart="452.46" departLane="best" departSpeed="max">
        <route edges="376401312#0 149935566#1 149935566#2 58561800#1 58561799#0 58561799#1 -943542797#0 -392103887 -40317922#4 -40317922#3 4645392#1 4645392#3 -4645391"/>
    </vehicle>
    <vehicle id="veh48" type="veh_passenger" depart="462.09" departLane="best" departSpeed="max">
        <route edges="-51508352#1 149935566#1 149935566#2 58561800#1 58561799#0 58561799#1 -943542797#0 -392103887 -40317922#4 -40317922#3 4645392#1 4645392#3 -4645391"/>
    </vehicle>
    <vehicle id="veh49" type="veh_passenger" depart="471.72" departLane="best" departSpeed="max">
        <route edges="376401312#0 149935566#1 149935566#2 58561800#1 58561799#0 58561799#1 -943542797#0 -392103887 -40317922#4 -40317922#3 -40317922#2 -40317922#1 -27222779#2 -27222779#1 -27222779#0"/>
    </vehicle>
    <vehicle id="veh50" type="veh_passenger" depart="481.34" departLane="best" departSpeed="max">
        <route edges="376401312#0 149935566#1 149935566#2 58561800#1 58561799#0 58561799#1 -943542797#0 -392103887 -40317922#4 -40317922#3 4645392#1 4645392#3 -4645391"/>
    </vehicle>
    <vehicle id="veh51" type="veh_passenger" depart="490.97" departLane="best" departSpeed="max">
        <route edges="-51508352#1 149935566#1 149935566#2 58561800#1 58561799#0 58561799#1 -943542797#0 -392103887 -40317922#4 -40317922#3 -40317922#2 -40317922#1 -27222779#2 -27222779#1 -27222779#0"/>
    </vehicle>
    <vehicle id="veh52" type="veh_passenger" depart="500.60" departLane="best" departSpeed="max">
        <route edges="376401312#0 149935566#1 149935566#2 58561800#1 58561799#0 58561799#1 -943542797#0 -392103887 -40317922#4 -40317922#3 4645392#1 4645392#3 -4645391"/>
    </vehicle>
    <vehicle id="veh53" type="veh_passenger" depart="510.22" departLane="best" departSpeed="max">
        <route edges="376401312#0 149935566#1 149935566#2 58561800#1 58561799#0 58561799#1 -943542797#0 -392103887 -40317922#4 -40317922#3 4645392#1 4645392#3 -4645391"/>
    </vehicle>
    <vehicle id="veh54" type="veh_passenger" depart="519.85" departLane="best" departSpeed="max">
        <route edges="27222779#0 27222779#1 27222779#2 40317927#1 943540703#0 943540703#1 943540703#2 943540702#0 943540702#1 51476080#1 51476080#2 51476080#3 51476080#4 51476080#5 51476080#6 51508352#1"/>
    </vehicle>
    <vehicle id="veh55" type="veh_passenger" depart="529.48" departLane="best" departSpeed="max">
        <route edges="376401312#0 149935566#1 149935566#2 58561800#1 58561799#0 58561799#1 -943542797#0 -392103887 -40317922#4 -40317922#3 -40317922#2 -40317922#1 -27222779#2 -27222779#1 -27222779#0"/>
    </vehicle>
    <vehicle id="veh56" type="veh_passenger" depart="539.10" departLane="best" departSpeed="max">
        <route edges="376401312#0 149935566#1 149935566#2 58561800#1 58561799#0 58561799#1 -943542797#0 -392103887 -40317922#4 -40317922#3 4645392#1 4645392#3 -4645391"/>
    </vehicle>
    <vehicle id="veh57" type="veh_passenger" depart="548.73" departLane="best" departSpeed="max">
        <route edges="-51508352#1 149935566#1 149935566#2 58561800#1 58561799#0 58561799#1 -943542797#0 -392103887 -40317922#4 -40317922#3 -40317922#2 -40317922#1 -27222779#2 -27222779#1 -27222779#0"/>
    </vehicle>
    <vehicle id="veh58" type="veh_passenger" depart="558.36" departLane="best">
        <route edges="51476080#1 51476080#2 51476080#3 51476080#4 51476080#5 51476080#6 149935566#1 149935566#2 58561800#1 58561799#0 58561799#1 -943542797#0 -392103887 -40317922#4 -40317922#3 4645392#1 4645392#3 -4645391"/>
    </vehicle>
    <vehicle id="veh59" type="veh_passenger" depart="567.98" departLane="best" departSpeed="max">
        <route edges="-51508352#1 149935566#1 149935566#2 58561800#1 58561799#0 58561799#1 -943542797#0 -392103887 -40317922#4 -40317922#3 -40317922#2 -40317922#1 -27222779#2 -27222779#1 -27222779#0"/>
    </vehicle>
    <vehicle id="veh60" type="veh_passenger" depart="577.61" departLane="best" departSpeed="max">
        <route edges="27222779#0 27222779#1 27222779#2 40317927#1 943540703#0 943540703#1 943540703#2 943540702#0 943540702#1 362368395#2"/>
    </vehicle>
    <vehicle id="veh61" type="veh_passenger" depart="587.24" departLane="best">
        <route edges="-40317921#1 -943542797#0 -392103887 -40317922#4 -40317922#3 -40317922#2 -40317922#1 40317927#1 943540703#0 943540703#1 943540703#2 943540702#0"/>
    </vehicle>
    <vehicle id="veh62" type="veh_passenger" depart="596.86" departLane="best">
        <route edges="-40317922#1 40317927#1 943540703#0 943540703#1 943540703#2 943540702#0 943540702#1 362368395#2"/>
    </vehicle>
    <vehicle id="veh63" type="veh_passenger" depart="606.49" departLane="best" departSpeed="max">
        <route edges="376401312#0 149935566#1 149935566#2 58561800#1 58561799#0 58561799#1 -943542797#0 -392103887 -40317922#4 -40317922#3 4645392#1 4645392#3 -4645391"/>
    </vehicle>
    <vehicle id="veh64" type="veh_passenger" depart="616.12" departLane="best" departSpeed="max">
        <route edges="376401312#0 149935566#1 149935566#2 58561800#1 58561799#0 58561799#1 -943542797#0 -392103887 -40317922#4 -40317922#3 -40317922#2 -40317922#1 -27222779#2 -27222779#1 -27222779#0"/>
    </vehicle>
    <vehicle id="veh65" type="veh_passenger" depart="625.75" departLane="best" departSpeed="max">
        <route edges="376401312#0 149935566#1 149935566#2 58561800#1 58561799#0 58561799#1 -943542797#0 -392103887 -40317922#4 -40317922#3 4645392#1 4645392#3 -4645391"/>
    </vehicle>
    <vehicle id="veh66" type="veh_passenger" depart="635.37" departLane="best">
        <route edges="134941607#1 40317927#1 943540703#0 943540703#1 943540703#2 943540702#0 943540702#1 51476080#1 51476080#2 51476080#3 51476080#4 51476080#5 51476080#6 51508352#1"/>
    </vehicle>
    <vehicle id="veh67" type="veh_passenger" depart="645.00" departLane="best">
        <route edges="943540702#1 51476080#1 51476080#2 51476080#3 51476080#4 51476080#5 51476080#6 149935566#1 149935566#2 58561800#1 58561799#0 58561799#1 -943542797#0 -392103887 -40317922#4 -40317922#3 4645392#1 4645392#3 -4645391"/>
    </vehicle>
    <vehicle id="veh68" type="veh_passenger" depart="654.63" departLane="best">
        <route edges="58561799#1 -943542797#0 -392103887 -40317922#4 -40317922#3 -40317922#2 -40317922#1 -27222779#2 -27222779#1 -27222779#0"/>
    </vehicle>
    <vehicle id="veh69" type="veh_passenger" depart="664.25" departLane="best">
        <route edges="943540702#1 51476080#1 51476080#2 51476080#3 51476080#4 51476080#5 51476080#6 149935566#1 149935566#2 58561800#1 58561799#0 58561799#1 40317921#1"/>
    </vehicle>
    <vehicle id="veh70" type="veh_passenger" depart="673.88" departLane="best" departSpeed="max">
        <route edges="376401312#0 149935566#1 149935566#2 58561800#1 58561799#0 58561799#1 -943542797#0 -392103887 -40317922#4 -40317922#3 4645392#1 4645392#3 -4645391"/>
    </vehicle>
    <vehicle id="veh71" type="veh_passenger" depart="683.51" departLane="best">
        <route edges="27222779#2 40317927#1 943540703#0 943540703#1 943540703#2 943540702#0 943540702#1 362368395#2"/>
    </vehicle>
    <vehicle id="veh72" type="veh_passenger" depart="693.13" departLane="best" departSpeed="max">
        <route edges="27222779#0 27222779#1 27222779#2 40317927#1 943540703#0 943540703#1 943540703#2 943540702#0 943540702#1 362368395#2"/>
    </vehicle>
    <vehicle id="veh73" type="veh_passenger" depart="702.76" departLane="best">
        <route edges="27222779#1 27222779#2 40317927#1 943540703#0 943540703#1 943540703#2 943540702#0 943540702#1 51476080#1 51476080#2 51476080#3 51476080#4 51476080#5 51476080#6 51508352#1"/>
    </vehicle>
    <vehicle id="veh74" type="veh_passenger" depart="712.39" departLane="best" departSpeed="max">
        <route edges="27222779#0 27222779#1 27222779#2 40317927#1 943540703#0 943540703#1 943540703#2 943540702#0 943540702#1 362368395#2"/>
    </vehicle>
    <vehicle id="veh75" type="veh_passenger" depart="722.01" departLane="best" departSpeed="max">
        <route edges="376401312#0 149935566#1 149935566#2 58561800#1 58561799#0 58561799#1 -943542797#0 -392103887 -40317922#4 -40317922#3 4645392#1 4645392#3 -4645391"/>
    </vehicle>
    <vehicle id="veh76" type="veh_passenger" depart="731.64" departLane="best" departSpeed="max">
        <route edges="376401312#0 149935566#1 149935566#2 58561800#1 58561799#0 58561799#1 -943542797#0 -392103887 -40317922#4 -40317922#3 4645392#1 4645392#3 -4645391"/>
    </vehicle>
    <vehicle id="veh77" type="veh_passenger" depart="741.27" departLane="best" departSpeed="max">
        <route edges="-51508352#1 149935566#1 149935566#2 58561800#1 58561799#0 58561799#1 -943542797#0 -392103887 -40317922#4 -40317922#3 -40317922#2 -40317922#1 -27222779#2"/>
    </vehicle>
    <vehicle id="veh78" type="veh_passenger" depart="750.89" departLane="best">
        <route edges="58561799#1 -943542797#0 -392103887 -40317922#4 -40317922#3 -40317922#2 -40317922#1 40317927#1 943540703#0 943540703#1 943540703#2 943540702#0 943540702#1 362368395#2"/>
    </vehicle>
    <vehicle id="veh79" type="veh_passenger" depart="760.52" departLane="best" departSpeed="max">
        <route edges="27222779#0 27222779#1 27222779#2 40317927#1 943540703#0 943540703#1 943540703#2 943540702#0 943540702#1 362368395#2"/>
    </vehicle>
    <vehicle id="veh80" type="veh_passenger" depart="770.15" departLane="best" departSpeed="max">
        <route edges="27222779#0 27222779#1 27222779#2 40317927#1 943540703#0 943540703#1 943540703#2 943540702#0 943540702#1 51476080#1 51476080#2 51476080#3 51476080#4 51476080#5 51476080#6 51508352#1"/>
    </vehicle>
    <vehicle id="veh81" type="veh_passenger" depart="779.78" departLane="best" departSpeed="max">
        <route edges="376401312#0 149935566#1 149935566#2 58561800#1 58561799#0 58561799#1 -943542797#0 -392103887 -40317922#4 -40317922#3 4645392#1 4645392#3 -4645391"/>
    </vehicle>
    <vehicle id="veh82" type="veh_passenger" depart="789.40" departLane="best" departSpeed="max">
        <route edges="376401312#0 149935566#1 149935566#2 58561800#1 58561799#0 58561799#1 -943542797#0 -392103887 -40317922#4 -40317922#3 4645392#1 4645392#3 -4645391"/>
    </vehicle>
    <vehicle id="veh83" type="veh_passenger" depart="799.03" departLane="best" departSpeed="max">
        <route edges="-51508352#1 149935566#1 149935566#2 58561800#1 58561799#0 58561799#1 -943542797#0 -392103887 -40317922#4 -40317922#3 -40317922#2 -40317922#1 -27222779#2 -27222779#1 -27222779#0"/>
    </vehicle>
    <vehicle id="veh84" type="veh_passenger" depart="808.66" departLane="best" departSpeed="max">
        <route edges="376401312#0 149935566#1 149935566#2 58561800#1 58561799#0 58561799#1 -943542797#0 -392103887 -40317922#4 -40317922#3 -40317922#2 -40317922#1 -27222779#2 -27222779#1 -27222779#0"/>
    </vehicle>
    <vehicle id="veh85" type="veh_passenger" depart="818.28" departLane="best" departSpeed="max">
        <route edges="27222779#0 27222779#1 27222779#2 40317927#1 943540703#0 943540703#1 943540703#2 943540702#0 943540702#1 362368395#2"/>
    </vehicle>
    <vehicle id="veh86" type="veh_passenger" depart="827.91" departLane="best" departSpeed="max">
        <route edges="376401312#0 149935566#1 149935566#2 58561800#1 58561799#0 58561799#1 -943542797#0 -392103887 -40317922#4 -40317922#3 -40317922#2 -40317922#1 -27222779#2 -27222779#1 -27222779#0"/>
    </vehicle>
    <vehicle id="veh87" type="veh_passenger" depart="837.54" departLane="best" departSpeed="max">
        <route edges="27222779#0 27222779#1 27222779#2 40317927#1 943540703#0 943540703#1 943540703#2 943540702#0 943540702#1 51476080#1 51476080#2 51476080#3 51476080#4 51476080#5 51476080#6 51508352#1"/>
    </vehicle>
    <vehicle id="veh88" type="veh_passenger" depart="847.16" departLane="best" departSpeed="max">
        <route edges="27222779#0 27222779#1 27222779#2 40317927#1 943540703#0 943540703#1 943540703#2 943540702#0 943540702#1 51476080#1 51476080#2 51476080#3 51476080#4 51476080#5 51476080#6 51508352#1"/>
    </vehicle>
    <vehicle id="veh90" type="veh_passenger" depart="866.42" departLane="best" departSpeed="max">
        <route edges="376401312#0 149935566#1 149935566#2 58561800#1 58561799#0 58561799#1 -943542797#0 -392103887 -40317922#4 -40317922#3 4645392#1 4645392#3 -4645391"/>
    </vehicle>
    <vehicle id="veh91" type="veh_passenger" depart="876.04" departLane="best" departSpeed="max">
        <route edges="-51508352#1 149935566#1 149935566#2 58561800#1 58561799#0 58561799#1 -943542797#0 -392103887 -40317922#4 -40317922#3 4645392#1 4645392#3 -4645391"/>
    </vehicle>
    <vehicle id="veh92" type="veh_passenger" depart="885.67" departLane="best" departSpeed="max">
        <route edges="-51508352#1 149935566#1 149935566#2 58561800#1 58561799#0 58561799#1 -943542797#0 -392103887 -40317922#4 -40317922#3 4645392#1 4645392#3 -4645391"/>
    </vehicle>
    <vehicle id="veh93" type="veh_passenger" depart="895.30" departLane="best" departSpeed="max">
        <route edges="376401312#0 149935566#1 149935566#2 58561800#1 58561799#0 58561799#1 -943542797#0 -392103887 -40317922#4 -40317922#3 -40317922#2 -40317922#1 -27222779#2 -27222779#1 -27222779#0"/>
    </vehicle>
    <vehicle id="veh94" type="veh_passenger" depart="904.92" departLane="best" departSpeed="max">
        <route edges="27222779#0 27222779#1 27222779#2 40317927#1 943540703#0 943540703#1 943540703#2 943540702#0 943540702#1 362368395#2"/>
    </vehicle>
    <vehicle id="veh95" type="veh_passenger" depart="914.55" departLane="best" departSpeed="max">
        <route edges="27222779#0 27222779#1 27222779#2 40317927#1 943540703#0 943540703#1 943540703#2 943540702#0 943540702#1 51476080#1 51476080#2 51476080#3 51476080#4 51476080#5 51476080#6 51508352#1"/>
    </vehicle>
    <vehicle id="veh96" type="veh_passenger" depart="924.18" departLane="best" departSpeed="max">
        <route edges="27222779#0 27222779#1 27222779#2 40317927#1 943540703#0 943540703#1 943540703#2 943540702#0 943540702#1 362368395#2"/>
    </vehicle>
    <vehicle id="veh97" type="veh_passenger" depart="933.80" departLane="best" departSpeed="max">
        <route edges="27222779#0 27222779#1 27222779#2 40317927#1 943540703#0 943540703#1 943540703#2 943540702#0 943540702#1 362368395#2"/>
    </vehicle>
    <vehicle id="veh98" type="veh_passenger" depart="943.43" departLane="best" departSpeed="max">
        <route edges="-51508352#1 149935566#1 149935566#2 58561800#1 58561799#0 58561799#1 -943542797#0 -392103887 -40317922#4 -40317922#3 4645392#1 4645392#3 -4645391"/>
    </vehicle>
    <vehicle id="veh100" type="veh_passenger" depart="962.69" departLane="best" departSpeed="max">
        <route edges="376401312#0 149935566#1 149935566#2 58561800#1 58561799#0 58561799#1 -943542797#0 -392103887 -40317922#4 -40317922#3 -40317922#2 -40317922#1 -27222779#2 -27222779#1 -27222779#0"/>
    </vehicle>
    <vehicle id="veh101" type="veh_passenger" depart="972.31" departLane="best" departSpeed="max">
        <route edges="27222779#0 27222779#1 27222779#2 40317927#1 943540703#0 943540703#1 943540703#2 943540702#0 943540702#1 362368395#2"/>
    </vehicle>