<?xml version="1.0" encoding="UTF-8"?>

<!-- generated on 2024-09-05 10:05:11.164169 by randomTrips.py v1_20_0+0002-343658e7c64
<configuration>
    <net-file value="osm.net.xml.gz"/>
    <output-trip-file value="osm.passenger.trips.xml"/>
    <route-file value="osm.passenger.rou.xml"/>
    <prefix value="veh"/>
    <trip-attributes value="departLane=&quot;best&quot;"/>
    <fringe-start-attributes value="departSpeed=&quot;max&quot;"/>
    <vehicle-class value="passenger"/>
    <lanes value="True"/>
    <fringe-factor value="50"/>
    <allow-fringe.min-length value="1000.0"/>
    <via-edge-types value="highway.motorway,highway.motorway_link,highway.trunk_link,highway.primary_link,highway.secondary_link,highway.tertiary_link"/>
    <min-distance value="300.0"/>
    <min-distance.fringe value="10.0"/>
    <remove-loops value="True"/>
    <validate value="True"/>
    <insertion-density value="200.0"/>
</configuration>
-->

<!-- generated on 2024-09-05 10:05:11 by Eclipse SUMO duarouter Version 1.20.0
<configuration xmlns:xsi="http://www.w3.org/2001/XMLSchema-instance" xsi:noNamespaceSchemaLocation="http://sumo.dlr.de/xsd/duarouterConfiguration.xsd">

    <input>
        <net-file value="osm.net.xml.gz"/>
        <route-files value="osm.passenger.trips.xml"/>
    </input>

    <output>
        <output-file value="osm.passenger.trips.xml.tmp"/>
        <alternatives-output value="NUL"/>
        <write-trips value="true"/>
    </output>

    <processing>
        <remove-loops value="true"/>
    </processing>

    <time>
        <begin value="0.0"/>
        <end value="3600.0"/>
    </time>

    <report>
        <no-warnings value="true"/>
        <ignore-errors value="true"/>
        <no-step-log value="true"/>
    </report>

</configuration>
-->

<routes xmlns:xsi="http://www.w3.org/2001/XMLSchema-instance" xsi:noNamespaceSchemaLocation="http://sumo.dlr.de/xsd/routes_file.xsd">
    <vType id="veh_passenger" vClass="passenger"/>
    <trip id="veh0" type="veh_passenger" depart="0.00" departLane="best" departSpeed="max" from="376401312#0" to="-27222779#0"/>
    <trip id="veh1" type="veh_passenger" depart="9.63" departLane="best" departSpeed="max" from="-51508352#1" to="-4645391"/>
    <trip id="veh2" type="veh_passenger" depart="19.25" departLane="best" departSpeed="max" from="376401312#0" to="-27222779#0"/>
    <trip id="veh3" type="veh_passenger" depart="28.88" departLane="best" from="149935566#1" to="-27222779#0"/>
    <trip id="veh4" type="veh_passenger" depart="38.51" departLane="best" departSpeed="max" from="-51508352#1" to="-27222779#0"/>
    <trip id="veh5" type="veh_passenger" depart="48.13" departLane="best" departSpeed="max" from="27222779#0" to="362368395#2"/>
    <trip id="veh6" type="veh_passenger" depart="57.76" departLane="best" from="-40317921#1" to="362368395#2"/>
    <trip id="veh7" type="veh_passenger" depart="67.39" departLane="best" departSpeed="max" from="376401312#0" to="-27222779#0"/>
    <trip id="veh8" type="veh_passenger" depart="77.01" departLane="best" departSpeed="max" from="-51508352#1" to="-4645391"/>
    <trip id="veh9" type="veh_passenger" depart="86.64" departLane="best" departSpeed="max" from="-51508352#1" to="-4645391"/>
    <trip id="veh10" type="veh_passenger" depart="96.27" departLane="best" departSpeed="max" from="-51508352#1" to="-4645391"/>
    <trip id="veh12" type="veh_passenger" depart="115.52" departLane="best" departSpeed="max" from="27222779#0" to="362368395#2"/>
    <trip id="veh13" type="veh_passenger" depart="125.15" departLane="best" departSpeed="max" from="-51508352#1" to="-27222779#0"/>
    <trip id="veh14" type="veh_passenger" depart="134.78" departLane="best" departSpeed="max" from="-51508352#1" to="-4645391"/>
    <trip id="veh15" type="veh_passenger" depart="144.40" departLane="best" departSpeed="max" from="27222779#0" to="51508352#1"/>
    <trip id="veh16" type="veh_passenger" depart="154.03" departLane="best" from="-943542797#0" to="362368395#2"/>
    <trip id="veh17" type="veh_passenger" depart="163.66" departLane="best" departSpeed="max" from="-51508352#1" to="-27222779#0"/>
    <trip id="veh18" type="veh_passenger" depart="173.28" departLane="best" from="-943542797#0" to="362368395#2"/>
    <trip id="veh19" type="veh_passenger" depart="182.91" departLane="best" departSpeed="max" from="27222779#0" to="58561799#0"/>
    <trip id="veh20" type="veh_passenger" depart="192.54" departLane="best" departSpeed="max" from="27222779#0" to="40317921#1"/>
    <trip id="veh21" type="veh_passenger" depart="202.16" departLane="best" departSpeed="max" from="-51508352#1" to="-27222779#0"/>
    <trip id="veh22" type="veh_passenger" depart="211.79" departLane="best" departSpeed="max" from="376401312#0" to="-27222779#0"/>
    <trip id="veh23" type="veh_passenger" depart="221.42" departLane="best" departSpeed="max" from="27222779#0" to="362368395#2"/>
    <trip id="veh24" type="veh_passenger" depart="231.04" departLane="best" departSpeed="max" from="27222779#0" to="362368395#2"/>
    <trip id="veh25" type="veh_passenger" depart="240.67" departLane="best" departSpeed="max" from="-51508352#1" to="-4645391"/>
    <trip id="veh26" type="veh_passenger" depart="250.30" departLane="best" from="-943542797#0" to="362368395#2"/>
    <trip id="veh27" type="veh_passenger" depart="259.93" departLane="best" departSpeed="max" from="27222779#0" to="362368395#2"/>
    <trip id="veh28" type="veh_passenger" depart="269.55" departLane="best" departSpeed="max" from="-51508352#1" to="-4645391"/>
    <trip id="veh30" type="veh_passenger" depart="288.81" departLane="best" departSpeed="max" from="-51508352#1" to="-4645391"/>
    <trip id="veh31" type="veh_passenger" depart="298.43" departLane="best" from="-392103887" to="-27222779#0"/>
    <trip id="veh32" type="veh_passenger" depart="308.06" departLane="best" departSpeed="max" from="-51508352#1" to="-27222779#0"/>
    <trip id="veh33" type="veh_passenger" depart="317.69" departLane="best" from="58561799#0" to="362368395#2"/>
    <trip id="veh34" type="veh_passenger" depart="327.31" departLane="best" departSpeed="max" from="27222779#0" to="51476080#5"/>
    <trip id="veh35" type="veh_passenger" depart="336.94" departLane="best" departSpeed="max" from="27222779#0" to="362368395#2"/>
    <trip id="veh36" type="veh_passenger" depart="346.57" departLane="best" departSpeed="max" from="27222779#0" to="51508352#1"/>
    <trip id="veh37" type="veh_passenger" depart="356.19" departLane="best" departSpeed="max" from="376401312#0" to="-27222779#2"/>
    <trip id="veh38" type="veh_passenger" depart="365.82" departLane="best" departSpeed="max" from="27222779#0" to="362368395#2"/>
    <trip id="veh39" type="veh_passenger" depart="375.45" departLane="best" departSpeed="max" from="27222779#0" to="362368395#2"/>
    <trip id="veh40" type="veh_passenger" depart="385.07" departLane="best" departSpeed="max" from="-51508352#1" to="-4645391"/>
    <trip id="veh41" type="veh_passenger" depart="394.70" departLane="best" departSpeed="max" from="27222779#0" to="51508352#1"/>
    <trip id="veh42" type="veh_passenger" depart="404.33" departLane="best" departSpeed="max" from="27222779#0" to="362368395#2"/>
    <trip id="veh43" type="veh_passenger" depart="413.95" departLane="best" departSpeed="max" from="-51508352#1" to="-27222779#0"/>
    <trip id="veh44" type="veh_passenger" depart="423.58" departLane="best" departSpeed="max" from="27222779#0" to="362368395#2"/>
    <trip id="veh45" type="veh_passenger" depart="433.21" departLane="best" departSpeed="max" from="27222779#0" to="362368395#2"/>
    <trip id="veh46" type="veh_passenger" depart="442.84" departLane="best" departSpeed="max" from="27222779#0" to="51508352#1"/>
    <trip id="veh47" type="veh_passenger" depart="452.46" departLane="best" departSpeed="max" from="376401312#0" to="-4645391"/>
    <trip id="veh48" type="veh_passenger" depart="462.09" departLane="best" departSpeed="max" from="-51508352#1" to="-4645391"/>
    <trip id="veh49" type="veh_passenger" depart="471.72" departLane="best" departSpeed="max" from="376401312#0" to="-27222779#0"/>
    <trip id="veh50" type="veh_passenger" depart="481.34" departLane="best" departSpeed="max" from="376401312#0" to="-4645391"/>
    <trip id="veh51" type="veh_passenger" depart="490.97" departLane="best" departSpeed="max" from="-51508352#1" to="-27222779#0"/>
    <trip id="veh52" type="veh_passenger" depart="500.60" departLane="best" departSpeed="max" from="376401312#0" to="-4645391"/>
    <trip id="veh53" type="veh_passenger" depart="510.22" departLane="best" departSpeed="max" from="376401312#0" to="-4645391"/>
    <trip id="veh54" type="veh_passenger" depart="519.85" departLane="best" departSpeed="max" from="27222779#0" to="51508352#1"/>
    <trip id="veh55" type="veh_passenger" depart="529.48" departLane="best" departSpeed="max" from="376401312#0" to="-27222779#0"/>
    <trip id="veh56" type="veh_passenger" depart="539.10" departLane="best" departSpeed="max" from="376401312#0" to="-4645391"/>
    <trip id="veh57" type="veh_passenger" depart="548.73" departLane="best" departSpeed="max" from="-51508352#1" to="-27222779#0"/>
    <trip id="veh58" type="veh_passenger" depart="558.36" departLane="best" from="51476080#1" to="-4645391"/>
    <trip id="veh59" type="veh_passenger" depart="567.98" departLane="best" departSpeed="max" from="-51508352#1" to="-27222779#0"/>
    <trip id="veh60" type="veh_passenger" depart="577.61" departLane="best" departSpeed="max" from="27222779#0" to="362368395#2"/>
    <trip id="veh61" type="veh_passenger" depart="587.24" departLane="best" from="-40317921#1" to="943540702#0"/>
    <trip id="veh62" type="veh_passenger" depart="596.86" departLane="best" from="-40317922#1" to="362368395#2"/>
    <trip id="veh63" type="veh_passenger" depart="606.49" departLane="best" departSpeed="max" from="376401312#0" to="-4645391"/>
    <trip id="veh64" type="veh_passenger" depart="616.12" departLane="best" departSpeed="max" from="376401312#0" to="-27222779#0"/>
    <trip id="veh65" type="veh_passenger" depart="625.75" departLane="best" departSpeed="max" from="376401312#0" to="-4645391"/>
    <trip id="veh66" type="veh_passenger" depart="635.37" departLane="best" from="134941607#1" to="51508352#1"/>
    <trip id="veh67" type="veh_passenger" depart="645.00" departLane="best" from="943540702#1" to="-4645391"/>
    <trip id="veh68" type="veh_passenger" depart="654.63" departLane="best" from="58561799#1" to="-27222779#0"/>
    <trip id="veh69" type="veh_passenger" depart="664.25" departLane="best" from="943540702#1" to="40317921#1"/>
    <trip id="veh70" type="veh_passenger" depart="673.88" departLane="best" departSpeed="max" from="376401312#0" to="-4645391"/>
    <trip id="veh71" type="veh_passenger" depart="683.51" departLane="best" from="27222779#2" to="362368395#2"/>
    <trip id="veh72" type="veh_passenger" depart="693.13" departLane="best" departSpeed="max" from="27222779#0" to="362368395#2"/>
    <trip id="veh73" type="veh_passenger" depart="702.76" departLane="best" from="27222779#1" to="51508352#1"/>
    <trip id="veh74" type="veh_passenger" depart="712.39" departLane="best" departSpeed="max" from="27222779#0" to="362368395#2"/>
    <trip id="veh75" type="veh_passenger" depart="722.01" departLane="best" departSpeed="max" from="376401312#0" to="-4645391"/>
    <trip id="veh76" type="veh_passenger" depart="731.64" departLane="best" departSpeed="max" from="376401312#0" to="-4645391"/>
    <trip id="veh77" type="veh_passenger" depart="741.27" departLane="best" departSpeed="max" from="-51508352#1" to="-27222779#2"/>
    <trip id="veh78" type="veh_passenger" depart="750.89" departLane="best" from="58561799#1" to="362368395#2"/>
    <trip id="veh79" type="veh_passenger" depart="760.52" departLane="best" departSpeed="max" from="27222779#0" to="362368395#2"/>
    <trip id="veh80" type="veh_passenger" depart="770.15" departLane="best" departSpeed="max" from="27222779#0" to="51508352#1"/>
    <trip id="veh81" type="veh_passenger" depart="779.78" departLane="best" departSpeed="max" from="376401312#0" to="-4645391"/>
    <trip id="veh82" type="veh_passenger" depart="789.40" departLane="best" departSpeed="max" from="376401312#0" to="-4645391"/>
    <trip id="veh83" type="veh_passenger" depart="799.03" departLane="best" departSpeed="max" from="-51508352#1" to="-27222779#0"/>
    <trip id="veh84" type="veh_passenger" depart="808.66" departLane="best" departSpeed="max" from="376401312#0" to="-27222779#0"/>
    <trip id="veh85" type="veh_passenger" depart="818.28" departLane="best" departSpeed="max" from="27222779#0" to="362368395#2"/>
    <trip id="veh86" type="veh_passenger" depart="827.91" departLane="best" departSpeed="max" from="376401312#0" to="-27222779#0"/>
    <trip id="veh87" type="veh_passenger" depart="837.54" departLane="best" departSpeed="max" from="27222779#0" to="51508352#1"/>
    <trip id="veh88" type="veh_passenger" depart="847.16" departLane="best" departSpeed="max" from="27222779#0" to="51508352#1"/>
    <trip id="veh90" type="veh_passenger" depart="866.42" departLane="best" departSpeed="max" from="376401312#0" to="-4645391"/>
    <trip id="veh91" type="veh_passenger" depart="876.04" departLane="best" departSpeed="max" from="-51508352#1" to="-4645391"/>
    <trip id="veh92" type="veh_passenger" depart="885.67" departLane="best" departSpeed="max" from="-51508352#1" to="-4645391"/>
    <trip id="veh93" type="veh_passenger" depart="895.30" departLane="best" departSpeed="max" from="376401312#0" to="-27222779#0"/>
    <trip id="veh94" type="veh_passenger" depart="904.92" departLane="best" departSpeed="max" from="27222779#0" to="362368395#2"/>
    <trip id="veh95" type="veh_passenger" depart="914.55" departLane="best" departSpeed="max" from="27222779#0" to="51508352#1"/>
    <trip id="veh96" type="veh_passenger" depart="924.18" departLane="best" departSpeed="max" from="27222779#0" to="362368395#2"/>
    <trip id="veh97" type="veh_passenger" depart="933.80" departLane="best" departSpeed="max" from="27222779#0" to="362368395#2"/>
    <trip id="veh98" type="veh_passenger" depart="943.43" departLane="best" departSpeed="max" from="-51508352#1" to="-4645391"/>
    <trip id="veh100" type="veh_passenger" depart="962.69" departLane="best" departSpeed="max" from="376401312#0" to="-27222779#0"/>
    <trip id="veh101" type="veh_passenger" depart="972.31" departLane="best" departSpeed="max" from="27222779#0" to="362368395#2"/>
    <trip id="veh102" type="veh_passenger" depart="981.94" departLane="best" from="-40317922#1" to="362368395#2"/>
    <trip id="veh103" type="veh_passenger" depart="991.57" departLane="best" departSpeed="max" from="-51508352#1" to="-4645391"/>
    <trip id="veh105" type="veh_passenger" depart="1010.82" departLane="best" departSpeed="max" from="-51508352#1" to="-27222779#0"/>
    <trip id="veh106" type="veh_passenger" depart="1020.45" departLane="best" from="-40317921#1" to="362368395#2"/>
    <trip id="veh107" type="veh_passenger" depart="1030.07" departLane="best" from="-40317921#1" to="-27222779#0"/>
    <trip id="veh108" type="veh_passenger" depart="1039.70" departLane="best" departSpeed="max" from="376401312#0" to="4645392#3"/>
    <trip id="veh109" type="veh_passenger" depart="1049.33" departLane="best" departSpeed="max" from="376401312#0" to="-27222779#0"/>
    <trip id="veh110" type="veh_passenger" depart="1058.95" departLane="best" departSpeed="max" from="-51508352#1" to="-27222779#0"/>
    <trip id="veh111" type="veh_passenger" depart="1068.58" departLane="best" departSpeed="max" from="376401312#0" to="-27222779#0"/>
    <trip id="veh112" type="veh_passenger" depart="1078.21" departLane="best" departSpeed="max" from="376401312#0" to="-4645391"/>
    <trip id="veh113" type="veh_passenger" depart="1087.83" departLane="best" departSpeed="max" from="27222779#0" to="51476080#5"/>
    <trip id="veh114" type="veh_passenger" depart="1097.46" departLane="best" departSpeed="max" from="27222779#0" to="362368395#2"/>
    <trip id="veh115" type="veh_passenger" depart="1107.09" departLane="best" departSpeed="max" from="27222779#0" to="362368395#2"/>
    <trip id="veh116" type="veh_passenger" depart="1116.71" departLane="best" departSpeed="max" from="376401312#0" to="-27222779#0"/>
    <trip id="veh117" type="veh_passenger" depart="1126.34" departLane="best" departSpeed="max" from="27222779#0" to="362368395#2"/>
    <trip id="veh118" type="veh_passenger" depart="1135.97" departLane="best" departSpeed="max" from="376401312#0" to="-40317922#1"/>
    <trip id="veh119" type="veh_passenger" depart="1145.60" departLane="best" departSpeed="max" from="376401312#0" to="-4645391"/>
    <trip id="veh120" type="veh_passenger" depart="1155.22" departLane="best" departSpeed="max" from="27222779#0" to="40317922#4"/>
    <trip id="veh121" type="veh_passenger" depart="1164.85" departLane="best" departSpeed="max" from="27222779#0" to="51508352#1"/>
    <trip id="veh122" type="veh_passenger" depart="1174.48" departLane="best" departSpeed="max" from="-51508352#1" to="-4645391"/>
    <trip id="veh123" type="veh_passenger" depart="1184.10" departLane="best" departSpeed="max" from="376401312#0" to="-4645391"/>
    <trip id="veh124" type="veh_passenger" depart="1193.73" departLane="best" departSpeed="max" from="27222779#0" to="362368395#2"/>
    <trip id="veh125" type="veh_passenger" depart="1203.36" departLane="best" departSpeed="max" from="27222779#0" to="362368395#2"/>
    <trip id="veh126" type="veh_passenger" depart="1212.98" departLane="best" departSpeed="max" from="376401312#0" to="-4645391"/>
    <trip id="veh127" type="veh_passenger" depart="1222.61" departLane="best" departSpeed="max" from="376401312#0" to="-4645391"/>
    <trip id="veh128" type="veh_passenger" depart="1232.24" departLane="best" departSpeed="max" from="-51508352#1" to="-27222779#0"/>
    <trip id="veh129" type="veh_passenger" depart="1241.86" departLane="best" departSpeed="max" from="-51508352#1" to="-27222779#0"/>
    <trip id="veh130" type="veh_passenger" depart="1251.49" departLane="best" departSpeed="max" from="-51508352#1" to="-4645391"/>
    <trip id="veh131" type="veh_passenger" depart="1261.12" departLane="best" departSpeed="max" from="27222779#0" to="362368395#2"/>
    <trip id="veh132" type="veh_passenger" depart="1270.74" departLane="best" departSpeed="max" from="-51508352#1" to="-27222779#0"/>
    <trip id="veh133" type="veh_passenger" depart="1280.37" departLane="best" departSpeed="max" from="-51508352#1" to="-4645391"/>
    <trip id="veh134" type="veh_passenger" depart="1290.00" departLane="best" departSpeed="max" from="-51508352#1" to="-27222779#0"/>
    <trip id="veh135" type="veh_passenger" depart="1299.63" departLane="best" departSpeed="max" from="376401312#0" to="-27222779#0"/>
    <trip id="veh136" type="veh_passenger" depart="1309.25" departLane="best" from="-40317922#1" to="362368395#2"/>
    <trip id="veh137" type="veh_passenger" depart="1318.88" departLane="best" from="-40317922#2" to="362368395#2"/>
    <trip id="veh138" type="veh_passenger" depart="1328.51" departLane="best" departSpeed="max" from="27222779#0" to="362368395#2"/>
    <trip id="veh139" type="veh_passenger" depart="1338.13" departLane="best" departSpeed="max" from="-51508352#1" to="-27222779#0"/>
    <trip id="veh140" type="veh_passenger" depart="1347.76" departLane="best" from="58561799#1" to="362368395#2"/>
    <trip id="veh141" type="veh_passenger" depart="1357.39" departLane="best" from="51476080#3" to="-27222779#0"/>
    <trip id="veh142" type="veh_passenger" depart="1367.01" departLane="best" from="-943542797#0" to="-27222779#0"/>
    <trip id="veh143" type="veh_passenger" depart="1376.64" departLane="best" departSpeed="max" from="376401312#0" to="-4645391"/>
    <trip id="veh144" type="veh_passenger" depart="1386.27" departLane="best" departSpeed="max" from="27222779#0" to="362368395#2"/>
    <trip id="veh145" type="veh_passenger" depart="1395.89" departLane="best" departSpeed="max" from="27222779#0" to="51508352#1"/>
    <trip id="veh146" type="veh_passenger" depart="1405.52" departLane="best" departSpeed="max" from="-51508352#1" to="-4645391"/>
    <trip id="veh147" type="veh_passenger" depart="1415.15" departLane="best" departSpeed="max" from="376401312#0" to="-27222779#0"/>
    <trip id="veh148" type="veh_passenger" depart="1424.77" departLane="best" departSpeed="max" from="-51508352#1" to="-27222779#0"/>
    <trip id="veh149" type="veh_passenger" depart="1434.40" departLane="best" from="27222779#1" to="362368395#2"/>
    <trip id="veh150" type="veh_passenger" depart="1444.03" departLane="best" departSpeed="max" from="27222779#0" to="362368395#2"/>
    <trip id="veh151" type="veh_passenger" depart="1453.65" departLane="best" departSpeed="max" from="376401312#0" to="-27222779#0"/>
    <trip id="veh152" type="veh_passenger" depart="1463.28" departLane="best" departSpeed="max" from="-51508352#1" to="-4645391"/>
    <trip id="veh153" type="veh_passenger" depart="1472.91" departLane="best" departSpeed="max" from="-51508352#1" to="-27222779#0"/>
    <trip id="veh154" type="veh_passenger" depart="1482.54" departLane="best" from="58561799#1" to="362368395#2"/>
    <trip id="veh155" type="veh_passenger" depart="1492.16" departLane="best" from="-40317922#4" to="362368395#2"/>
    <trip id="veh156" type="veh_passenger" depart="1501.79" departLane="best" departSpeed="max" from="376401312#0" to="-4645391"/>
    <trip id="veh157" type="veh_passenger" depart="1511.42" departLane="best" departSpeed="max" from="27222779#0" to="362368395#2"/>
    <trip id="veh158" type="veh_passenger" depart="1521.04" departLane="best" departSpeed="max" from="27222779#0" to="362368395#2"/>
    <trip id="veh159" type="veh_passenger" depart="1530.67" departLane="best" from="149935566#2" to="-4645391"/>
    <trip id="veh161" type="veh_passenger" depart="1549.92" departLane="best" departSpeed="max" from="27222779#0" to="362368395#2"/>
    <trip id="veh162" type="veh_passenger" depart="1559.55" departLane="best" departSpeed="max" from="376401312#0" to="-4645391"/>
    <trip id="veh163" type="veh_passenger" depart="1569.18" departLane="best" departSpeed="max" from="27222779#0" to="51508352#1"/>
    <trip id="veh164" type="veh_passenger" depart="1578.80" departLane="best" departSpeed="max" from="27222779#0" to="362368395#2"/>
    <trip id="veh165" type="veh_passenger" depart="1588.43" departLane="best" from="344664988#0" to="-4645391"/>
    <trip id="veh166" type="veh_passenger" depart="1598.06" departLane="best" departSpeed="max" from="27222779#0" to="51508352#1"/>
    <trip id="veh167" type="veh_passenger" depart="1607.68" departLane="best" departSpeed="max" from="27222779#0" to="51508352#1"/>
    <trip id="veh168" type="veh_passenger" depart="1617.31" departLane="best" departSpeed="max" from="-51508352#1" to="-4645391"/>
    <trip id="veh169" type="veh_passenger" depart="1626.94" departLane="best" departSpeed="max" from="27222779#0" to="943542797#0"/>
    <trip id="veh170" type="veh_passenger" depart="1636.56" departLane="best" departSpeed="max" from="27222779#0" to="362368395#2"/>
    <trip id="veh171" type="veh_passenger" depart="1646.19" departLane="best" departSpeed="max" from="376401312#0" to="-27222779#0"/>
    <trip id="veh172" type="veh_passenger" depart="1655.82" departLane="best" from="-40317922#3" to="362368395#2"/>
    <trip id="veh173" type="veh_passenger" depart="1665.45" departLane="best" departSpeed="max" from="27222779#0" to="51508352#1"/>
    <trip id="veh174" type="veh_passenger" depart="1675.07" departLane="best" from="-40317922#2" to="362368395#2"/>
    <trip id="veh175" type="veh_passenger" depart="1684.70" departLane="best" departSpeed="max" from="27222779#0" to="362368395#2"/>
    <trip id="veh176" type="veh_passenger" depart="1694.33" departLane="best" departSpeed="max" from="376401312#0" to="-27222779#2"/>
    <trip id="veh177" type="veh_passenger" depart="1703.95" departLane="best" departSpeed="max" from="376401312#0" to="-27222779#0"/>
    <trip id="veh178" type="veh_passenger" depart="1713.58" departLane="best" departSpeed="max" from="27222779#0" to="58561800#1"/>
    <trip id="veh179" type="veh_passenger" depart="1723.21" departLane="best" from="-40317922#2" to="362368395#2"/>
    <trip id="veh180" type="veh_passenger" depart="1732.83" departLane="best" departSpeed="max" from="27222779#0" to="51508352#1"/>
    <trip id="veh181" type="veh_passenger" depart="1742.46" departLane="best" departSpeed="max" from="-51508352#1" to="-27222779#0"/>
    <trip id="veh182" type="veh_passenger" depart="1752.09" departLane="best" from="-40317922#2" to="362368395#2"/>
    <trip id="veh183" type="veh_passenger" depart="1761.71" departLane="best" departSpeed="max" from="-51508352#1" to="-4645391"/>
    <trip id="veh184" type="veh_passenger" depart="1771.34" departLane="best" from="27222779#2" to="51508352#1"/>
    <trip id="veh185" type="veh_passenger" depart="1780.97" departLane="best" departSpeed="max" from="27222779#0" to="362368395#2"/>
    <trip id="veh186" type="veh_passenger" depart="1790.59" departLane="best" departSpeed="max" from="27222779#0" to="51508352#1"/>
    <trip id="veh187" type="veh_passenger" depart="1800.22" departLane="best" departSpeed="max" from="376401312#0" to="-4645391"/>
    <trip id="veh188" type="veh_passenger" depart="1809.85" departLane="best" departSpeed="max" from="27222779#0" to="362368395#2"/>
    <trip id="veh189" type="veh_passenger" depart="1819.48" departLane="best" departSpeed="max" from="376401312#0" to="-27222779#0"/>
    <trip id="veh190" type="veh_passenger" depart="1829.10" departLane="best" departSpeed="max" from="-51508352#1" to="-27222779#0"/>
    <trip id="veh191" type="veh_passenger" depart="1838.73" departLane="best" departSpeed="max" from="27222779#0" to="51508352#1"/>
    <trip id="veh192" type="veh_passenger" depart="1848.36" departLane="best" departSpeed="max" from="376401312#0" to="-4645391"/>
    <trip id="veh193" type="veh_passenger" depart="1857.98" departLane="best" from="149935566#1" to="-27222779#0"/>
    <trip id="veh194" type="veh_passenger" depart="1867.61" departLane="best" departSpeed="max" from="27222779#0" to="51508352#1"/>
    <trip id="veh195" type="veh_passenger" depart="1877.24" departLane="best" departSpeed="max" from="27222779#0" to="362368395#2"/>
    <trip id="veh196" type="veh_passenger" depart="1886.86" departLane="best" departSpeed="max" from="-51508352#1" to="-4645391"/>
    <trip id="veh197" type="veh_passenger" depart="1896.49" departLane="best" departSpeed="max" from="27222779#0" to="51508352#1"/>
    <trip id="veh198" type="veh_passenger" depart="1906.12" departLane="best" departSpeed="max" from="-51508352#1" to="-27222779#0"/>
    <trip id="veh199" type="veh_passenger" depart="1915.74" departLane="best" departSpeed="max" from="-51508352#1" to="-27222779#2"/>
    <trip id="veh200" type="veh_passenger" depart="1925.37" departLane="best" from="58561799#1" to="362368395#2"/>
    <trip id="veh201" type="veh_passenger" depart="1935.00" departLane="best" departSpeed="max" from="376401312#0" to="-27222779#0"/>
    <trip id="veh202" type="veh_passenger" depart="1944.62" departLane="best" from="58561800#1" to="-27222779#0"/>
    <trip id="veh203" type="veh_passenger" depart="1954.25" departLane="best" departSpeed="max" from="27222779#0" to="362368395#2"/>
    <trip id="veh204" type="veh_passenger" depart="1963.88" departLane="best" departSpeed="max" from="27222779#0" to="149935566#2"/>
    <trip id="veh205" type="veh_passenger" depart="1973.50" departLane="best" departSpeed="max" from="-51508352#1" to="-27222779#0"/>
    <trip id="veh206" type="veh_passenger" depart="1983.13" departLane="best" departSpeed="max" from="376401312#0" to="-4645391"/>
    <trip id="veh207" type="veh_passenger" depart="1992.76" departLane="best" from="51476080#6" to="4645392#1"/>
    <trip id="veh208" type="veh_passenger" depart="2002.39" departLane="best" departSpeed="max" from="-51508352#1" to="-4645391"/>
    <trip id="veh209" type="veh_passenger" depart="2012.01" departLane="best" from="27222779#1" to="51508352#1"/>
    <trip id="veh210" type="veh_passenger" depart="2021.64" departLane="best" departSpeed="max" from="-51508352#1" to="-27222779#0"/>
    <trip id="veh211" type="veh_passenger" depart="2031.27" departLane="best" departSpeed="max" from="376401312#0" to="-27222779#0"/>
    <trip id="veh212" type="veh_passenger" depart="2040.89" departLane="best" departSpeed="max" from="-51508352#1" to="-4645391"/>
    <trip id="veh213" type="veh_passenger" depart="2050.52" departLane="best" departSpeed="max" from="-51508352#1" to="-27222779#0"/>
    <trip id="veh214" type="veh_passenger" depart="2060.15" departLane="best" from="58561799#1" to="-27222779#0"/>
    <trip id="veh215" type="veh_passenger" depart="2069.77" departLane="best" departSpeed="max" from="27222779#0" to="362368395#2"/>
    <trip id="veh216" type="veh_passenger" depart="2079.40" departLane="best" departSpeed="max" from="27222779#0" to="149935566#2"/>
    <trip id="veh217" type="veh_passenger" depart="2089.03" departLane="best" from="51476080#5" to="-4645391"/>
    <trip id="veh218" type="veh_passenger" depart="2098.65" departLane="best" departSpeed="max" from="27222779#0" to="362368395#2"/>
    <trip id="veh219" type="veh_passenger" depart="2108.28" departLane="best" departSpeed="max" from="376401312#0" to="-4645391"/>
    <trip id="veh220" type="veh_passenger" depart="2117.91" departLane="best" departSpeed="max" from="27222779#0" to="362368395#2"/>
    <trip id="veh221" type="veh_passenger" depart="2127.53" departLane="best" from="51476080#6" to="-27222779#0"/>
    <trip id="veh222" type="veh_passenger" depart="2137.16" departLane="best" departSpeed="max" from="376401312#0" to="-27222779#0"/>
    <trip id="veh223" type="veh_passenger" depart="2146.79" departLane="best" departSpeed="max" from="27222779#0" to="362368395#2"/>